
---------- Begin Simulation Statistics ----------
simSeconds                                   0.005283                       # Number of seconds simulated (Second)
simTicks                                   5282666000                       # Number of ticks simulated (Tick)
finalTick                                581277988500                       # Number of ticks from beginning of simulation (restored from checkpoints and never reset) (Tick)
simFreq                                  1000000000000                       # The number of ticks per simulated second ((Tick/Second))
hostSeconds                                     31.55                       # Real time elapsed on the host (Second)
hostTickRate                                167458689                       # The number of ticks simulated per host second (ticks/s) ((Tick/Second))
hostMemory                                    1217784                       # Number of bytes of host memory used (Byte)
simInsts                                    183783092                       # Number of instructions simulated (Count)
simOps                                      214413131                       # Number of ops (including micro ops) simulated (Count)
hostInstRate                                  5825760                       # Simulator instruction rate (inst/s) ((Count/Second))
hostOpRate                                    6796691                       # Simulator op (including micro ops) rate (op/s) ((Count/Second))
system.bridge.power_state.pwrStateResidencyTicks::UNDEFINED 581277988500                       # Cumulative time (in ticks) in various power states (Tick)
system.clk_domain.clock                          1000                       # Clock period in ticks (Tick)
system.cpu0.numCycles                        10416570                       # Number of cpu cycles simulated (Cycle)
system.cpu0.numWorkItemsStarted                     0                       # Number of work items this cpu started (Count)
system.cpu0.numWorkItemsCompleted                   0                       # Number of work items this cpu completed (Count)
system.cpu0.exec_context.thread_0.numInsts      6993234                       # Number of instructions committed (Count)
system.cpu0.exec_context.thread_0.numOps      8052238                       # Number of ops (including micro ops) committed (Count)
system.cpu0.exec_context.thread_0.numIntAluAccesses      7137921                       # Number of integer alu accesses (Count)
system.cpu0.exec_context.thread_0.numFpAluAccesses            0                       # Number of float alu accesses (Count)
system.cpu0.exec_context.thread_0.numVecAluAccesses           96                       # Number of vector alu accesses (Count)
system.cpu0.exec_context.thread_0.numCallsReturns       397846                       # Number of times a function call or return occured (Count)
system.cpu0.exec_context.thread_0.numCondCtrlInsts       986788                       # Number of instructions that are conditional controls (Count)
system.cpu0.exec_context.thread_0.numIntInsts      7137921                       # Number of integer instructions (Count)
system.cpu0.exec_context.thread_0.numFpInsts            0                       # Number of float instructions (Count)
system.cpu0.exec_context.thread_0.numVecInsts           96                       # Number of vector instructions (Count)
system.cpu0.exec_context.thread_0.numIntRegReads     10056463                       # Number of times the integer registers were read (Count)
system.cpu0.exec_context.thread_0.numIntRegWrites      5549928                       # Number of times the integer registers were written (Count)
system.cpu0.exec_context.thread_0.numFpRegReads            0                       # Number of times the floating registers were read (Count)
system.cpu0.exec_context.thread_0.numFpRegWrites            0                       # Number of times the floating registers were written (Count)
system.cpu0.exec_context.thread_0.numVecRegReads           64                       # Number of times the vector registers were read (Count)
system.cpu0.exec_context.thread_0.numVecRegWrites           32                       # Number of times the vector registers were written (Count)
system.cpu0.exec_context.thread_0.numVecPredRegReads            0                       # Number of times the predicate registers were read (Count)
system.cpu0.exec_context.thread_0.numVecPredRegWrites            0                       # Number of times the predicate registers were written (Count)
system.cpu0.exec_context.thread_0.numCCRegReads     23955003                       # Number of times the CC registers were read (Count)
system.cpu0.exec_context.thread_0.numCCRegWrites      5246998                       # Number of times the CC registers were written (Count)
system.cpu0.exec_context.thread_0.numMiscRegReads       992942                       # Number of times the Misc registers were read (Count)
system.cpu0.exec_context.thread_0.numMiscRegWrites          653                       # Number of times the Misc registers were written (Count)
system.cpu0.exec_context.thread_0.numMemRefs      1006920                       # Number of memory refs (Count)
system.cpu0.exec_context.thread_0.numLoadInsts       536490                       # Number of load instructions (Count)
system.cpu0.exec_context.thread_0.numStoreInsts       470430                       # Number of store instructions (Count)
system.cpu0.exec_context.thread_0.numIdleCycles 2477714.060048                       # Number of idle cycles (Cycle)
system.cpu0.exec_context.thread_0.numBusyCycles 7938855.939952                       # Number of busy cycles (Cycle)
system.cpu0.exec_context.thread_0.notIdleFraction     0.762137                       # Percentage of non-idle cycles (Ratio)
system.cpu0.exec_context.thread_0.idleFraction     0.237863                       # Percentage of idle cycles (Ratio)
system.cpu0.exec_context.thread_0.numBranches      1315032                       # Number of branches fetched (Count)
system.cpu0.exec_context.thread_0.statExecutedInstType::No_OpClass            1      0.00%      0.00% # Class of executed instruction. (Count)
system.cpu0.exec_context.thread_0.statExecutedInstType::IntAlu      6800435     84.45%     84.45% # Class of executed instruction. (Count)
system.cpu0.exec_context.thread_0.statExecutedInstType::IntMult       244831      3.04%     87.49% # Class of executed instruction. (Count)
system.cpu0.exec_context.thread_0.statExecutedInstType::IntDiv           53      0.00%     87.50% # Class of executed instruction. (Count)
system.cpu0.exec_context.thread_0.statExecutedInstType::FloatAdd            0      0.00%     87.50% # Class of executed instruction. (Count)
system.cpu0.exec_context.thread_0.statExecutedInstType::FloatCmp            0      0.00%     87.50% # Class of executed instruction. (Count)
system.cpu0.exec_context.thread_0.statExecutedInstType::FloatCvt            0      0.00%     87.50% # Class of executed instruction. (Count)
system.cpu0.exec_context.thread_0.statExecutedInstType::FloatMult            0      0.00%     87.50% # Class of executed instruction. (Count)
system.cpu0.exec_context.thread_0.statExecutedInstType::FloatMultAcc            0      0.00%     87.50% # Class of executed instruction. (Count)
system.cpu0.exec_context.thread_0.statExecutedInstType::FloatDiv            0      0.00%     87.50% # Class of executed instruction. (Count)
system.cpu0.exec_context.thread_0.statExecutedInstType::FloatMisc            0      0.00%     87.50% # Class of executed instruction. (Count)
system.cpu0.exec_context.thread_0.statExecutedInstType::FloatSqrt            0      0.00%     87.50% # Class of executed instruction. (Count)
system.cpu0.exec_context.thread_0.statExecutedInstType::SimdAdd            0      0.00%     87.50% # Class of executed instruction. (Count)
system.cpu0.exec_context.thread_0.statExecutedInstType::SimdAddAcc            0      0.00%     87.50% # Class of executed instruction. (Count)
system.cpu0.exec_context.thread_0.statExecutedInstType::SimdAlu            0      0.00%     87.50% # Class of executed instruction. (Count)
system.cpu0.exec_context.thread_0.statExecutedInstType::SimdCmp            0      0.00%     87.50% # Class of executed instruction. (Count)
system.cpu0.exec_context.thread_0.statExecutedInstType::SimdCvt            0      0.00%     87.50% # Class of executed instruction. (Count)
system.cpu0.exec_context.thread_0.statExecutedInstType::SimdMisc            0      0.00%     87.50% # Class of executed instruction. (Count)
system.cpu0.exec_context.thread_0.statExecutedInstType::SimdMult            0      0.00%     87.50% # Class of executed instruction. (Count)
system.cpu0.exec_context.thread_0.statExecutedInstType::SimdMultAcc            0      0.00%     87.50% # Class of executed instruction. (Count)
system.cpu0.exec_context.thread_0.statExecutedInstType::SimdShift            0      0.00%     87.50% # Class of executed instruction. (Count)
system.cpu0.exec_context.thread_0.statExecutedInstType::SimdShiftAcc            0      0.00%     87.50% # Class of executed instruction. (Count)
system.cpu0.exec_context.thread_0.statExecutedInstType::SimdDiv            0      0.00%     87.50% # Class of executed instruction. (Count)
system.cpu0.exec_context.thread_0.statExecutedInstType::SimdSqrt            0      0.00%     87.50% # Class of executed instruction. (Count)
system.cpu0.exec_context.thread_0.statExecutedInstType::SimdFloatAdd            0      0.00%     87.50% # Class of executed instruction. (Count)
system.cpu0.exec_context.thread_0.statExecutedInstType::SimdFloatAlu            0      0.00%     87.50% # Class of executed instruction. (Count)
system.cpu0.exec_context.thread_0.statExecutedInstType::SimdFloatCmp            0      0.00%     87.50% # Class of executed instruction. (Count)
system.cpu0.exec_context.thread_0.statExecutedInstType::SimdFloatCvt            0      0.00%     87.50% # Class of executed instruction. (Count)
system.cpu0.exec_context.thread_0.statExecutedInstType::SimdFloatDiv            0      0.00%     87.50% # Class of executed instruction. (Count)
system.cpu0.exec_context.thread_0.statExecutedInstType::SimdFloatMisc            0      0.00%     87.50% # Class of executed instruction. (Count)
system.cpu0.exec_context.thread_0.statExecutedInstType::SimdFloatMult            0      0.00%     87.50% # Class of executed instruction. (Count)
system.cpu0.exec_context.thread_0.statExecutedInstType::SimdFloatMultAcc            0      0.00%     87.50% # Class of executed instruction. (Count)
system.cpu0.exec_context.thread_0.statExecutedInstType::SimdFloatSqrt            0      0.00%     87.50% # Class of executed instruction. (Count)
system.cpu0.exec_context.thread_0.statExecutedInstType::SimdReduceAdd            0      0.00%     87.50% # Class of executed instruction. (Count)
system.cpu0.exec_context.thread_0.statExecutedInstType::SimdReduceAlu            0      0.00%     87.50% # Class of executed instruction. (Count)
system.cpu0.exec_context.thread_0.statExecutedInstType::SimdReduceCmp            0      0.00%     87.50% # Class of executed instruction. (Count)
system.cpu0.exec_context.thread_0.statExecutedInstType::SimdFloatReduceAdd            0      0.00%     87.50% # Class of executed instruction. (Count)
system.cpu0.exec_context.thread_0.statExecutedInstType::SimdFloatReduceCmp            0      0.00%     87.50% # Class of executed instruction. (Count)
system.cpu0.exec_context.thread_0.statExecutedInstType::SimdAes            0      0.00%     87.50% # Class of executed instruction. (Count)
system.cpu0.exec_context.thread_0.statExecutedInstType::SimdAesMix            0      0.00%     87.50% # Class of executed instruction. (Count)
system.cpu0.exec_context.thread_0.statExecutedInstType::SimdSha1Hash            0      0.00%     87.50% # Class of executed instruction. (Count)
system.cpu0.exec_context.thread_0.statExecutedInstType::SimdSha1Hash2            0      0.00%     87.50% # Class of executed instruction. (Count)
system.cpu0.exec_context.thread_0.statExecutedInstType::SimdSha256Hash            0      0.00%     87.50% # Class of executed instruction. (Count)
system.cpu0.exec_context.thread_0.statExecutedInstType::SimdSha256Hash2            0      0.00%     87.50% # Class of executed instruction. (Count)
system.cpu0.exec_context.thread_0.statExecutedInstType::SimdShaSigma2            0      0.00%     87.50% # Class of executed instruction. (Count)
system.cpu0.exec_context.thread_0.statExecutedInstType::SimdShaSigma3            0      0.00%     87.50% # Class of executed instruction. (Count)
system.cpu0.exec_context.thread_0.statExecutedInstType::SimdPredAlu            0      0.00%     87.50% # Class of executed instruction. (Count)
system.cpu0.exec_context.thread_0.statExecutedInstType::MemRead       536490      6.66%     94.16% # Class of executed instruction. (Count)
system.cpu0.exec_context.thread_0.statExecutedInstType::MemWrite       470430      5.84%    100.00% # Class of executed instruction. (Count)
system.cpu0.exec_context.thread_0.statExecutedInstType::FloatMemRead            0      0.00%    100.00% # Class of executed instruction. (Count)
system.cpu0.exec_context.thread_0.statExecutedInstType::FloatMemWrite            0      0.00%    100.00% # Class of executed instruction. (Count)
system.cpu0.exec_context.thread_0.statExecutedInstType::IprAccess            0      0.00%    100.00% # Class of executed instruction. (Count)
system.cpu0.exec_context.thread_0.statExecutedInstType::InstPrefetch            0      0.00%    100.00% # Class of executed instruction. (Count)
system.cpu0.exec_context.thread_0.statExecutedInstType::total      8052240                       # Class of executed instruction. (Count)
system.cpu0.mmu.alignFaults                         0                       # Number of MMU faults due to alignment restrictions (Count)
system.cpu0.mmu.prefetchFaults                      7                       # Number of MMU faults due to prefetch (Count)
system.cpu0.mmu.domainFaults                        0                       # Number of MMU faults due to domain restrictions (Count)
system.cpu0.mmu.permsFaults                         0                       # Number of MMU faults due to permissions restrictions (Count)
system.cpu0.mmu.dtb.readHits                   407407                       # Read hits (Count)
system.cpu0.mmu.dtb.readMisses                     92                       # Read misses (Count)
system.cpu0.mmu.dtb.writeHits                  470417                       # Write hits (Count)
system.cpu0.mmu.dtb.writeMisses                    10                       # Write misses (Count)
system.cpu0.mmu.dtb.inserts                        95                       # Number of times an entry is inserted into the TLB (Count)
system.cpu0.mmu.dtb.flushTlb                        0                       # Number of times complete TLB was flushed (Count)
system.cpu0.mmu.dtb.flushTlbMva                     0                       # Number of times TLB was flushed by MVA (Count)
system.cpu0.mmu.dtb.flushTlbMvaAsid               126                       # Number of times TLB was flushed by MVA & ASID (Count)
system.cpu0.mmu.dtb.flushTlbAsid                    6                       # Number of times TLB was flushed by ASID (Count)
system.cpu0.mmu.dtb.flushedEntries                  0                       # Number of entries that have been flushed from TLB (Count)
system.cpu0.mmu.dtb.readAccesses               407499                       # Read accesses (Count)
system.cpu0.mmu.dtb.writeAccesses              470427                       # Write accesses (Count)
system.cpu0.mmu.dtb.hits                       877824                       # Total TLB (inst and data) hits (Count)
system.cpu0.mmu.dtb.misses                        102                       # Total TLB (inst and data) misses (Count)
system.cpu0.mmu.dtb.accesses                   877926                       # Total TLB (inst and data) accesses (Count)
system.cpu0.mmu.dtb_walker.walks                   86                       # Table walker walks requested (Count)
system.cpu0.mmu.dtb_walker.walksLongDescriptor           86                       # Table walker walks initiated with long descriptors (Count)
system.cpu0.mmu.dtb_walker.walkWaitTime::samples           86                       # Table walker wait (enqueue to first request) latency (Tick)
system.cpu0.mmu.dtb_walker.walkWaitTime::0           86    100.00%    100.00% # Table walker wait (enqueue to first request) latency (Tick)
system.cpu0.mmu.dtb_walker.walkWaitTime::total           86                       # Table walker wait (enqueue to first request) latency (Tick)
system.cpu0.mmu.dtb_walker.pageSizes::4KiB           76     88.37%     88.37% # Table walker page sizes translated (Count)
system.cpu0.mmu.dtb_walker.pageSizes::2MiB           10     11.63%    100.00% # Table walker page sizes translated (Count)
system.cpu0.mmu.dtb_walker.pageSizes::total           86                       # Table walker page sizes translated (Count)
system.cpu0.mmu.dtb_walker.requestOrigin_Requested::Data           86                       # Table walker requests started/completed, data/inst (Count)
system.cpu0.mmu.dtb_walker.requestOrigin_Requested::Inst            0                       # Table walker requests started/completed, data/inst (Count)
system.cpu0.mmu.dtb_walker.requestOrigin_Requested::total           86                       # Table walker requests started/completed, data/inst (Count)
system.cpu0.mmu.dtb_walker.requestOrigin_Completed::Data           86                       # Table walker requests started/completed, data/inst (Count)
system.cpu0.mmu.dtb_walker.requestOrigin_Completed::Inst            0                       # Table walker requests started/completed, data/inst (Count)
system.cpu0.mmu.dtb_walker.requestOrigin_Completed::total           86                       # Table walker requests started/completed, data/inst (Count)
system.cpu0.mmu.dtb_walker.requestOrigin::total          172                       # Table walker requests started/completed, data/inst (Count)
system.cpu0.mmu.dtb_walker.power_state.pwrStateResidencyTicks::UNDEFINED 581277988500                       # Cumulative time (in ticks) in various power states (Tick)
system.cpu0.mmu.itb.instHits                  6993052                       # Inst hits (Count)
system.cpu0.mmu.itb.instMisses                    184                       # Inst misses (Count)
system.cpu0.mmu.itb.inserts                       184                       # Number of times an entry is inserted into the TLB (Count)
system.cpu0.mmu.itb.flushTlb                        0                       # Number of times complete TLB was flushed (Count)
system.cpu0.mmu.itb.flushTlbMva                     0                       # Number of times TLB was flushed by MVA (Count)
system.cpu0.mmu.itb.flushTlbMvaAsid               126                       # Number of times TLB was flushed by MVA & ASID (Count)
system.cpu0.mmu.itb.flushTlbAsid                    6                       # Number of times TLB was flushed by ASID (Count)
system.cpu0.mmu.itb.flushedEntries                  0                       # Number of entries that have been flushed from TLB (Count)
system.cpu0.mmu.itb.instAccesses              6993236                       # Inst accesses (Count)
system.cpu0.mmu.itb.hits                      6993052                       # Total TLB (inst and data) hits (Count)
system.cpu0.mmu.itb.misses                        184                       # Total TLB (inst and data) misses (Count)
system.cpu0.mmu.itb.accesses                  6993236                       # Total TLB (inst and data) accesses (Count)
system.cpu0.mmu.itb_walker.walks                  128                       # Table walker walks requested (Count)
system.cpu0.mmu.itb_walker.walksLongDescriptor          128                       # Table walker walks initiated with long descriptors (Count)
system.cpu0.mmu.itb_walker.walkWaitTime::samples          128                       # Table walker wait (enqueue to first request) latency (Tick)
system.cpu0.mmu.itb_walker.walkWaitTime::0          128    100.00%    100.00% # Table walker wait (enqueue to first request) latency (Tick)
system.cpu0.mmu.itb_walker.walkWaitTime::total          128                       # Table walker wait (enqueue to first request) latency (Tick)
system.cpu0.mmu.itb_walker.pageSizes::4KiB          126     98.44%     98.44% # Table walker page sizes translated (Count)
system.cpu0.mmu.itb_walker.pageSizes::2MiB            2      1.56%    100.00% # Table walker page sizes translated (Count)
system.cpu0.mmu.itb_walker.pageSizes::total          128                       # Table walker page sizes translated (Count)
system.cpu0.mmu.itb_walker.requestOrigin_Requested::Data            0                       # Table walker requests started/completed, data/inst (Count)
system.cpu0.mmu.itb_walker.requestOrigin_Requested::Inst          128                       # Table walker requests started/completed, data/inst (Count)
system.cpu0.mmu.itb_walker.requestOrigin_Requested::total          128                       # Table walker requests started/completed, data/inst (Count)
system.cpu0.mmu.itb_walker.requestOrigin_Completed::Data            0                       # Table walker requests started/completed, data/inst (Count)
system.cpu0.mmu.itb_walker.requestOrigin_Completed::Inst          128                       # Table walker requests started/completed, data/inst (Count)
system.cpu0.mmu.itb_walker.requestOrigin_Completed::total          128                       # Table walker requests started/completed, data/inst (Count)
system.cpu0.mmu.itb_walker.requestOrigin::total          256                       # Table walker requests started/completed, data/inst (Count)
system.cpu0.mmu.itb_walker.power_state.pwrStateResidencyTicks::UNDEFINED 581277988500                       # Cumulative time (in ticks) in various power states (Tick)
system.cpu0.mmu.l2_shared.partialHits             199                       # partial translation hits (Count)
system.cpu0.mmu.l2_shared.instHits                179                       # Inst hits (Count)
system.cpu0.mmu.l2_shared.instMisses                5                       # Inst misses (Count)
system.cpu0.mmu.l2_shared.readHits                 77                       # Read hits (Count)
system.cpu0.mmu.l2_shared.readMisses               15                       # Read misses (Count)
system.cpu0.mmu.l2_shared.writeHits                 8                       # Write hits (Count)
system.cpu0.mmu.l2_shared.writeMisses               2                       # Write misses (Count)
system.cpu0.mmu.l2_shared.inserts                 221                       # Number of times an entry is inserted into the TLB (Count)
system.cpu0.mmu.l2_shared.flushTlb                  0                       # Number of times complete TLB was flushed (Count)
system.cpu0.mmu.l2_shared.flushTlbMva               0                       # Number of times TLB was flushed by MVA (Count)
system.cpu0.mmu.l2_shared.flushTlbMvaAsid          126                       # Number of times TLB was flushed by MVA & ASID (Count)
system.cpu0.mmu.l2_shared.flushTlbAsid              6                       # Number of times TLB was flushed by ASID (Count)
system.cpu0.mmu.l2_shared.flushedEntries            2                       # Number of entries that have been flushed from TLB (Count)
system.cpu0.mmu.l2_shared.readAccesses             92                       # Read accesses (Count)
system.cpu0.mmu.l2_shared.writeAccesses            10                       # Write accesses (Count)
system.cpu0.mmu.l2_shared.instAccesses            184                       # Inst accesses (Count)
system.cpu0.mmu.l2_shared.hits                    264                       # Total TLB (inst and data) hits (Count)
system.cpu0.mmu.l2_shared.misses                   22                       # Total TLB (inst and data) misses (Count)
system.cpu0.mmu.l2_shared.accesses                286                       # Total TLB (inst and data) accesses (Count)
system.cpu0.mmu.stage2_dtb.readHits                 0                       # Read hits (Count)
system.cpu0.mmu.stage2_dtb.readMisses               0                       # Read misses (Count)
system.cpu0.mmu.stage2_dtb.writeHits                0                       # Write hits (Count)
system.cpu0.mmu.stage2_dtb.writeMisses              0                       # Write misses (Count)
system.cpu0.mmu.stage2_dtb.inserts                  0                       # Number of times an entry is inserted into the TLB (Count)
system.cpu0.mmu.stage2_dtb.flushTlb                 0                       # Number of times complete TLB was flushed (Count)
system.cpu0.mmu.stage2_dtb.flushTlbMva              0                       # Number of times TLB was flushed by MVA (Count)
system.cpu0.mmu.stage2_dtb.flushTlbMvaAsid            0                       # Number of times TLB was flushed by MVA & ASID (Count)
system.cpu0.mmu.stage2_dtb.flushTlbAsid             0                       # Number of times TLB was flushed by ASID (Count)
system.cpu0.mmu.stage2_dtb.flushedEntries            0                       # Number of entries that have been flushed from TLB (Count)
system.cpu0.mmu.stage2_dtb.readAccesses             0                       # Read accesses (Count)
system.cpu0.mmu.stage2_dtb.writeAccesses            0                       # Write accesses (Count)
system.cpu0.mmu.stage2_dtb.hits                     0                       # Total TLB (inst and data) hits (Count)
system.cpu0.mmu.stage2_dtb.misses                   0                       # Total TLB (inst and data) misses (Count)
system.cpu0.mmu.stage2_dtb.accesses                 0                       # Total TLB (inst and data) accesses (Count)
system.cpu0.mmu.stage2_dtb_walker.walks             0                       # Table walker walks requested (Count)
system.cpu0.mmu.stage2_dtb_walker.requestOrigin_Requested::Data            0                       # Table walker requests started/completed, data/inst (Count)
system.cpu0.mmu.stage2_dtb_walker.requestOrigin_Requested::Inst            0                       # Table walker requests started/completed, data/inst (Count)
system.cpu0.mmu.stage2_dtb_walker.requestOrigin_Requested::total            0                       # Table walker requests started/completed, data/inst (Count)
system.cpu0.mmu.stage2_dtb_walker.requestOrigin_Completed::Data            0                       # Table walker requests started/completed, data/inst (Count)
system.cpu0.mmu.stage2_dtb_walker.requestOrigin_Completed::Inst            0                       # Table walker requests started/completed, data/inst (Count)
system.cpu0.mmu.stage2_dtb_walker.requestOrigin_Completed::total            0                       # Table walker requests started/completed, data/inst (Count)
system.cpu0.mmu.stage2_dtb_walker.requestOrigin::total            0                       # Table walker requests started/completed, data/inst (Count)
system.cpu0.mmu.stage2_dtb_walker.power_state.pwrStateResidencyTicks::UNDEFINED 581277988500                       # Cumulative time (in ticks) in various power states (Tick)
system.cpu0.mmu.stage2_itb.instHits                 0                       # Inst hits (Count)
system.cpu0.mmu.stage2_itb.instMisses               0                       # Inst misses (Count)
system.cpu0.mmu.stage2_itb.inserts                  0                       # Number of times an entry is inserted into the TLB (Count)
system.cpu0.mmu.stage2_itb.flushTlb                 0                       # Number of times complete TLB was flushed (Count)
system.cpu0.mmu.stage2_itb.flushTlbMva              0                       # Number of times TLB was flushed by MVA (Count)
system.cpu0.mmu.stage2_itb.flushTlbMvaAsid            0                       # Number of times TLB was flushed by MVA & ASID (Count)
system.cpu0.mmu.stage2_itb.flushTlbAsid             0                       # Number of times TLB was flushed by ASID (Count)
system.cpu0.mmu.stage2_itb.flushedEntries            0                       # Number of entries that have been flushed from TLB (Count)
system.cpu0.mmu.stage2_itb.instAccesses             0                       # Inst accesses (Count)
system.cpu0.mmu.stage2_itb.hits                     0                       # Total TLB (inst and data) hits (Count)
system.cpu0.mmu.stage2_itb.misses                   0                       # Total TLB (inst and data) misses (Count)
system.cpu0.mmu.stage2_itb.accesses                 0                       # Total TLB (inst and data) accesses (Count)
system.cpu0.mmu.stage2_itb_walker.walks             0                       # Table walker walks requested (Count)
system.cpu0.mmu.stage2_itb_walker.requestOrigin_Requested::Data            0                       # Table walker requests started/completed, data/inst (Count)
system.cpu0.mmu.stage2_itb_walker.requestOrigin_Requested::Inst            0                       # Table walker requests started/completed, data/inst (Count)
system.cpu0.mmu.stage2_itb_walker.requestOrigin_Requested::total            0                       # Table walker requests started/completed, data/inst (Count)
system.cpu0.mmu.stage2_itb_walker.requestOrigin_Completed::Data            0                       # Table walker requests started/completed, data/inst (Count)
system.cpu0.mmu.stage2_itb_walker.requestOrigin_Completed::Inst            0                       # Table walker requests started/completed, data/inst (Count)
system.cpu0.mmu.stage2_itb_walker.requestOrigin_Completed::total            0                       # Table walker requests started/completed, data/inst (Count)
system.cpu0.mmu.stage2_itb_walker.requestOrigin::total            0                       # Table walker requests started/completed, data/inst (Count)
system.cpu0.mmu.stage2_itb_walker.power_state.pwrStateResidencyTicks::UNDEFINED 581277988500                       # Cumulative time (in ticks) in various power states (Tick)
system.cpu0.power_state.numTransitions             32                       # Number of power state transitions (Count)
system.cpu0.power_state.ticksClkGated::samples           17                       # Distribution of time spent in the clock gated state (Tick)
system.cpu0.power_state.ticksClkGated::mean 78236764.647059                       # Distribution of time spent in the clock gated state (Tick)
system.cpu0.power_state.ticksClkGated::stdev 54329521.995915                       # Distribution of time spent in the clock gated state (Tick)
system.cpu0.power_state.ticksClkGated::1000-5e+10           17    100.00%    100.00% # Distribution of time spent in the clock gated state (Tick)
system.cpu0.power_state.ticksClkGated::min_value      7288557                       # Distribution of time spent in the clock gated state (Tick)
system.cpu0.power_state.ticksClkGated::max_value    162416068                       # Distribution of time spent in the clock gated state (Tick)
system.cpu0.power_state.ticksClkGated::total           17                       # Distribution of time spent in the clock gated state (Tick)
system.cpu0.power_state.pwrStateResidencyTicks::ON   4026116501                       # Cumulative time (in ticks) in various power states (Tick)
system.cpu0.power_state.pwrStateResidencyTicks::CLK_GATED   1330024999                       # Cumulative time (in ticks) in various power states (Tick)
system.cpu0.thread_0.numInsts                       0                       # Number of Instructions committed (Count)
system.cpu0.thread_0.numOps                         0                       # Number of Ops committed (Count)
system.cpu0.thread_0.numMemRefs                     0                       # Number of Memory References (Count)
system.cpu1.numCycles                        10712295                       # Number of cpu cycles simulated (Cycle)
system.cpu1.numWorkItemsStarted                     0                       # Number of work items this cpu started (Count)
system.cpu1.numWorkItemsCompleted                   0                       # Number of work items this cpu completed (Count)
system.cpu1.exec_context.thread_0.numInsts      7395734                       # Number of instructions committed (Count)
system.cpu1.exec_context.thread_0.numOps      8518199                       # Number of ops (including micro ops) committed (Count)
system.cpu1.exec_context.thread_0.numIntAluAccesses      7569371                       # Number of integer alu accesses (Count)
system.cpu1.exec_context.thread_0.numFpAluAccesses            0                       # Number of float alu accesses (Count)
system.cpu1.exec_context.thread_0.numVecAluAccesses          359                       # Number of vector alu accesses (Count)
system.cpu1.exec_context.thread_0.numCallsReturns       420489                       # Number of times a function call or return occured (Count)
system.cpu1.exec_context.thread_0.numCondCtrlInsts      1043576                       # Number of instructions that are conditional controls (Count)
system.cpu1.exec_context.thread_0.numIntInsts      7569371                       # Number of integer instructions (Count)
system.cpu1.exec_context.thread_0.numFpInsts            0                       # Number of float instructions (Count)
system.cpu1.exec_context.thread_0.numVecInsts          359                       # Number of vector instructions (Count)
system.cpu1.exec_context.thread_0.numIntRegReads     10556627                       # Number of times the integer registers were read (Count)
system.cpu1.exec_context.thread_0.numIntRegWrites      5861895                       # Number of times the integer registers were written (Count)
system.cpu1.exec_context.thread_0.numFpRegReads            0                       # Number of times the floating registers were read (Count)
system.cpu1.exec_context.thread_0.numFpRegWrites            0                       # Number of times the floating registers were written (Count)
system.cpu1.exec_context.thread_0.numVecRegReads          289                       # Number of times the vector registers were read (Count)
system.cpu1.exec_context.thread_0.numVecRegWrites          156                       # Number of times the vector registers were written (Count)
system.cpu1.exec_context.thread_0.numVecPredRegReads            0                       # Number of times the predicate registers were read (Count)
system.cpu1.exec_context.thread_0.numVecPredRegWrites            0                       # Number of times the predicate registers were written (Count)
system.cpu1.exec_context.thread_0.numCCRegReads     24076230                       # Number of times the CC registers were read (Count)
system.cpu1.exec_context.thread_0.numCCRegWrites      5352464                       # Number of times the CC registers were written (Count)
system.cpu1.exec_context.thread_0.numMiscRegReads      1032540                       # Number of times the Misc registers were read (Count)
system.cpu1.exec_context.thread_0.numMiscRegWrites         7678                       # Number of times the Misc registers were written (Count)
system.cpu1.exec_context.thread_0.numMemRefs      1154684                       # Number of memory refs (Count)
system.cpu1.exec_context.thread_0.numLoadInsts       621370                       # Number of load instructions (Count)
system.cpu1.exec_context.thread_0.numStoreInsts       533314                       # Number of store instructions (Count)
system.cpu1.exec_context.thread_0.numIdleCycles 2075548.457478                       # Number of idle cycles (Cycle)
system.cpu1.exec_context.thread_0.numBusyCycles 8636746.542522                       # Number of busy cycles (Cycle)
system.cpu1.exec_context.thread_0.notIdleFraction     0.806246                       # Percentage of non-idle cycles (Ratio)
system.cpu1.exec_context.thread_0.idleFraction     0.193754                       # Percentage of idle cycles (Ratio)
system.cpu1.exec_context.thread_0.numBranches      1398578                       # Number of branches fetched (Count)
system.cpu1.exec_context.thread_0.statExecutedInstType::No_OpClass           97      0.00%      0.00% # Class of executed instruction. (Count)
system.cpu1.exec_context.thread_0.statExecutedInstType::IntAlu      7116998     83.55%     83.55% # Class of executed instruction. (Count)
system.cpu1.exec_context.thread_0.statExecutedInstType::IntMult       246352      2.89%     86.44% # Class of executed instruction. (Count)
system.cpu1.exec_context.thread_0.statExecutedInstType::IntDiv           60      0.00%     86.44% # Class of executed instruction. (Count)
system.cpu1.exec_context.thread_0.statExecutedInstType::FloatAdd            0      0.00%     86.44% # Class of executed instruction. (Count)
system.cpu1.exec_context.thread_0.statExecutedInstType::FloatCmp            0      0.00%     86.44% # Class of executed instruction. (Count)
system.cpu1.exec_context.thread_0.statExecutedInstType::FloatCvt            0      0.00%     86.44% # Class of executed instruction. (Count)
system.cpu1.exec_context.thread_0.statExecutedInstType::FloatMult            0      0.00%     86.44% # Class of executed instruction. (Count)
system.cpu1.exec_context.thread_0.statExecutedInstType::FloatMultAcc            0      0.00%     86.44% # Class of executed instruction. (Count)
system.cpu1.exec_context.thread_0.statExecutedInstType::FloatDiv            0      0.00%     86.44% # Class of executed instruction. (Count)
system.cpu1.exec_context.thread_0.statExecutedInstType::FloatMisc            0      0.00%     86.44% # Class of executed instruction. (Count)
system.cpu1.exec_context.thread_0.statExecutedInstType::FloatSqrt            0      0.00%     86.44% # Class of executed instruction. (Count)
system.cpu1.exec_context.thread_0.statExecutedInstType::SimdAdd           14      0.00%     86.44% # Class of executed instruction. (Count)
system.cpu1.exec_context.thread_0.statExecutedInstType::SimdAddAcc            0      0.00%     86.44% # Class of executed instruction. (Count)
system.cpu1.exec_context.thread_0.statExecutedInstType::SimdAlu           14      0.00%     86.44% # Class of executed instruction. (Count)
system.cpu1.exec_context.thread_0.statExecutedInstType::SimdCmp           12      0.00%     86.44% # Class of executed instruction. (Count)
system.cpu1.exec_context.thread_0.statExecutedInstType::SimdCvt            0      0.00%     86.44% # Class of executed instruction. (Count)
system.cpu1.exec_context.thread_0.statExecutedInstType::SimdMisc           14      0.00%     86.44% # Class of executed instruction. (Count)
system.cpu1.exec_context.thread_0.statExecutedInstType::SimdMult            0      0.00%     86.44% # Class of executed instruction. (Count)
system.cpu1.exec_context.thread_0.statExecutedInstType::SimdMultAcc            0      0.00%     86.44% # Class of executed instruction. (Count)
system.cpu1.exec_context.thread_0.statExecutedInstType::SimdShift            0      0.00%     86.44% # Class of executed instruction. (Count)
system.cpu1.exec_context.thread_0.statExecutedInstType::SimdShiftAcc            0      0.00%     86.44% # Class of executed instruction. (Count)
system.cpu1.exec_context.thread_0.statExecutedInstType::SimdDiv            0      0.00%     86.44% # Class of executed instruction. (Count)
system.cpu1.exec_context.thread_0.statExecutedInstType::SimdSqrt            0      0.00%     86.44% # Class of executed instruction. (Count)
system.cpu1.exec_context.thread_0.statExecutedInstType::SimdFloatAdd            0      0.00%     86.44% # Class of executed instruction. (Count)
system.cpu1.exec_context.thread_0.statExecutedInstType::SimdFloatAlu            0      0.00%     86.44% # Class of executed instruction. (Count)
system.cpu1.exec_context.thread_0.statExecutedInstType::SimdFloatCmp            0      0.00%     86.44% # Class of executed instruction. (Count)
system.cpu1.exec_context.thread_0.statExecutedInstType::SimdFloatCvt            0      0.00%     86.44% # Class of executed instruction. (Count)
system.cpu1.exec_context.thread_0.statExecutedInstType::SimdFloatDiv            0      0.00%     86.44% # Class of executed instruction. (Count)
system.cpu1.exec_context.thread_0.statExecutedInstType::SimdFloatMisc            0      0.00%     86.44% # Class of executed instruction. (Count)
system.cpu1.exec_context.thread_0.statExecutedInstType::SimdFloatMult            0      0.00%     86.44% # Class of executed instruction. (Count)
system.cpu1.exec_context.thread_0.statExecutedInstType::SimdFloatMultAcc            0      0.00%     86.44% # Class of executed instruction. (Count)
system.cpu1.exec_context.thread_0.statExecutedInstType::SimdFloatSqrt            0      0.00%     86.44% # Class of executed instruction. (Count)
system.cpu1.exec_context.thread_0.statExecutedInstType::SimdReduceAdd            0      0.00%     86.44% # Class of executed instruction. (Count)
system.cpu1.exec_context.thread_0.statExecutedInstType::SimdReduceAlu            0      0.00%     86.44% # Class of executed instruction. (Count)
system.cpu1.exec_context.thread_0.statExecutedInstType::SimdReduceCmp            0      0.00%     86.44% # Class of executed instruction. (Count)
system.cpu1.exec_context.thread_0.statExecutedInstType::SimdFloatReduceAdd            0      0.00%     86.44% # Class of executed instruction. (Count)
system.cpu1.exec_context.thread_0.statExecutedInstType::SimdFloatReduceCmp            0      0.00%     86.44% # Class of executed instruction. (Count)
system.cpu1.exec_context.thread_0.statExecutedInstType::SimdAes            0      0.00%     86.44% # Class of executed instruction. (Count)
system.cpu1.exec_context.thread_0.statExecutedInstType::SimdAesMix            0      0.00%     86.44% # Class of executed instruction. (Count)
system.cpu1.exec_context.thread_0.statExecutedInstType::SimdSha1Hash            0      0.00%     86.44% # Class of executed instruction. (Count)
system.cpu1.exec_context.thread_0.statExecutedInstType::SimdSha1Hash2            0      0.00%     86.44% # Class of executed instruction. (Count)
system.cpu1.exec_context.thread_0.statExecutedInstType::SimdSha256Hash            0      0.00%     86.44% # Class of executed instruction. (Count)
system.cpu1.exec_context.thread_0.statExecutedInstType::SimdSha256Hash2            0      0.00%     86.44% # Class of executed instruction. (Count)
system.cpu1.exec_context.thread_0.statExecutedInstType::SimdShaSigma2            0      0.00%     86.44% # Class of executed instruction. (Count)
system.cpu1.exec_context.thread_0.statExecutedInstType::SimdShaSigma3            0      0.00%     86.44% # Class of executed instruction. (Count)
system.cpu1.exec_context.thread_0.statExecutedInstType::SimdPredAlu            0      0.00%     86.44% # Class of executed instruction. (Count)
system.cpu1.exec_context.thread_0.statExecutedInstType::MemRead       621370      7.29%     93.74% # Class of executed instruction. (Count)
system.cpu1.exec_context.thread_0.statExecutedInstType::MemWrite       533314      6.26%    100.00% # Class of executed instruction. (Count)
system.cpu1.exec_context.thread_0.statExecutedInstType::FloatMemRead            0      0.00%    100.00% # Class of executed instruction. (Count)
system.cpu1.exec_context.thread_0.statExecutedInstType::FloatMemWrite            0      0.00%    100.00% # Class of executed instruction. (Count)
system.cpu1.exec_context.thread_0.statExecutedInstType::IprAccess            0      0.00%    100.00% # Class of executed instruction. (Count)
system.cpu1.exec_context.thread_0.statExecutedInstType::InstPrefetch            0      0.00%    100.00% # Class of executed instruction. (Count)
system.cpu1.exec_context.thread_0.statExecutedInstType::total      8518245                       # Class of executed instruction. (Count)
system.cpu1.mmu.alignFaults                         0                       # Number of MMU faults due to alignment restrictions (Count)
system.cpu1.mmu.prefetchFaults                     15                       # Number of MMU faults due to prefetch (Count)
system.cpu1.mmu.domainFaults                        0                       # Number of MMU faults due to domain restrictions (Count)
system.cpu1.mmu.permsFaults                         5                       # Number of MMU faults due to permissions restrictions (Count)
system.cpu1.mmu.dtb.readHits                   492617                       # Read hits (Count)
system.cpu1.mmu.dtb.readMisses                    240                       # Read misses (Count)
system.cpu1.mmu.dtb.writeHits                  533277                       # Write hits (Count)
system.cpu1.mmu.dtb.writeMisses                    56                       # Write misses (Count)
system.cpu1.mmu.dtb.inserts                       252                       # Number of times an entry is inserted into the TLB (Count)
system.cpu1.mmu.dtb.flushTlb                        0                       # Number of times complete TLB was flushed (Count)
system.cpu1.mmu.dtb.flushTlbMva                     0                       # Number of times TLB was flushed by MVA (Count)
system.cpu1.mmu.dtb.flushTlbMvaAsid               126                       # Number of times TLB was flushed by MVA & ASID (Count)
system.cpu1.mmu.dtb.flushTlbAsid                    6                       # Number of times TLB was flushed by ASID (Count)
system.cpu1.mmu.dtb.flushedEntries                  5                       # Number of entries that have been flushed from TLB (Count)
system.cpu1.mmu.dtb.readAccesses               492857                       # Read accesses (Count)
system.cpu1.mmu.dtb.writeAccesses              533333                       # Write accesses (Count)
system.cpu1.mmu.dtb.hits                      1025894                       # Total TLB (inst and data) hits (Count)
system.cpu1.mmu.dtb.misses                        296                       # Total TLB (inst and data) misses (Count)
system.cpu1.mmu.dtb.accesses                  1026190                       # Total TLB (inst and data) accesses (Count)
system.cpu1.mmu.dtb_walker.walks                  270                       # Table walker walks requested (Count)
system.cpu1.mmu.dtb_walker.walksLongDescriptor          270                       # Table walker walks initiated with long descriptors (Count)
system.cpu1.mmu.dtb_walker.walkWaitTime::samples          270                       # Table walker wait (enqueue to first request) latency (Tick)
system.cpu1.mmu.dtb_walker.walkWaitTime::0          270    100.00%    100.00% # Table walker wait (enqueue to first request) latency (Tick)
system.cpu1.mmu.dtb_walker.walkWaitTime::total          270                       # Table walker wait (enqueue to first request) latency (Tick)
system.cpu1.mmu.dtb_walker.pageSizes::4KiB          206     85.48%     85.48% # Table walker page sizes translated (Count)
system.cpu1.mmu.dtb_walker.pageSizes::2MiB           35     14.52%    100.00% # Table walker page sizes translated (Count)
system.cpu1.mmu.dtb_walker.pageSizes::total          241                       # Table walker page sizes translated (Count)
system.cpu1.mmu.dtb_walker.requestOrigin_Requested::Data          270                       # Table walker requests started/completed, data/inst (Count)
system.cpu1.mmu.dtb_walker.requestOrigin_Requested::Inst            0                       # Table walker requests started/completed, data/inst (Count)
system.cpu1.mmu.dtb_walker.requestOrigin_Requested::total          270                       # Table walker requests started/completed, data/inst (Count)
system.cpu1.mmu.dtb_walker.requestOrigin_Completed::Data          241                       # Table walker requests started/completed, data/inst (Count)
system.cpu1.mmu.dtb_walker.requestOrigin_Completed::Inst            0                       # Table walker requests started/completed, data/inst (Count)
system.cpu1.mmu.dtb_walker.requestOrigin_Completed::total          241                       # Table walker requests started/completed, data/inst (Count)
system.cpu1.mmu.dtb_walker.requestOrigin::total          511                       # Table walker requests started/completed, data/inst (Count)
system.cpu1.mmu.dtb_walker.power_state.pwrStateResidencyTicks::UNDEFINED 581277988500                       # Cumulative time (in ticks) in various power states (Tick)
system.cpu1.mmu.itb.instHits                  7395149                       # Inst hits (Count)
system.cpu1.mmu.itb.instMisses                    651                       # Inst misses (Count)
system.cpu1.mmu.itb.inserts                       631                       # Number of times an entry is inserted into the TLB (Count)
system.cpu1.mmu.itb.flushTlb                        0                       # Number of times complete TLB was flushed (Count)
system.cpu1.mmu.itb.flushTlbMva                     0                       # Number of times TLB was flushed by MVA (Count)
system.cpu1.mmu.itb.flushTlbMvaAsid               126                       # Number of times TLB was flushed by MVA & ASID (Count)
system.cpu1.mmu.itb.flushTlbAsid                    6                       # Number of times TLB was flushed by ASID (Count)
system.cpu1.mmu.itb.flushedEntries                  0                       # Number of entries that have been flushed from TLB (Count)
system.cpu1.mmu.itb.instAccesses              7395800                       # Inst accesses (Count)
system.cpu1.mmu.itb.hits                      7395149                       # Total TLB (inst and data) hits (Count)
system.cpu1.mmu.itb.misses                        651                       # Total TLB (inst and data) misses (Count)
system.cpu1.mmu.itb.accesses                  7395800                       # Total TLB (inst and data) accesses (Count)
system.cpu1.mmu.itb_walker.walks                  446                       # Table walker walks requested (Count)
system.cpu1.mmu.itb_walker.walksLongDescriptor          446                       # Table walker walks initiated with long descriptors (Count)
system.cpu1.mmu.itb_walker.walkWaitTime::samples          446                       # Table walker wait (enqueue to first request) latency (Tick)
system.cpu1.mmu.itb_walker.walkWaitTime::0          446    100.00%    100.00% # Table walker wait (enqueue to first request) latency (Tick)
system.cpu1.mmu.itb_walker.walkWaitTime::total          446                       # Table walker wait (enqueue to first request) latency (Tick)
system.cpu1.mmu.itb_walker.pageSizes::4KiB          422     99.06%     99.06% # Table walker page sizes translated (Count)
system.cpu1.mmu.itb_walker.pageSizes::2MiB            4      0.94%    100.00% # Table walker page sizes translated (Count)
system.cpu1.mmu.itb_walker.pageSizes::total          426                       # Table walker page sizes translated (Count)
system.cpu1.mmu.itb_walker.requestOrigin_Requested::Data            0                       # Table walker requests started/completed, data/inst (Count)
system.cpu1.mmu.itb_walker.requestOrigin_Requested::Inst          446                       # Table walker requests started/completed, data/inst (Count)
system.cpu1.mmu.itb_walker.requestOrigin_Requested::total          446                       # Table walker requests started/completed, data/inst (Count)
system.cpu1.mmu.itb_walker.requestOrigin_Completed::Data            0                       # Table walker requests started/completed, data/inst (Count)
system.cpu1.mmu.itb_walker.requestOrigin_Completed::Inst          426                       # Table walker requests started/completed, data/inst (Count)
system.cpu1.mmu.itb_walker.requestOrigin_Completed::total          426                       # Table walker requests started/completed, data/inst (Count)
system.cpu1.mmu.itb_walker.requestOrigin::total          872                       # Table walker requests started/completed, data/inst (Count)
system.cpu1.mmu.itb_walker.power_state.pwrStateResidencyTicks::UNDEFINED 581277988500                       # Cumulative time (in ticks) in various power states (Tick)
system.cpu1.mmu.l2_shared.partialHits             640                       # partial translation hits (Count)
system.cpu1.mmu.l2_shared.instHits                634                       # Inst hits (Count)
system.cpu1.mmu.l2_shared.instMisses               17                       # Inst misses (Count)
system.cpu1.mmu.l2_shared.readHits                183                       # Read hits (Count)
system.cpu1.mmu.l2_shared.readMisses               57                       # Read misses (Count)
system.cpu1.mmu.l2_shared.writeHits                39                       # Write hits (Count)
system.cpu1.mmu.l2_shared.writeMisses              17                       # Write misses (Count)
system.cpu1.mmu.l2_shared.inserts                 710                       # Number of times an entry is inserted into the TLB (Count)
system.cpu1.mmu.l2_shared.flushTlb                  0                       # Number of times complete TLB was flushed (Count)
system.cpu1.mmu.l2_shared.flushTlbMva               0                       # Number of times TLB was flushed by MVA (Count)
system.cpu1.mmu.l2_shared.flushTlbMvaAsid          126                       # Number of times TLB was flushed by MVA & ASID (Count)
system.cpu1.mmu.l2_shared.flushTlbAsid              6                       # Number of times TLB was flushed by ASID (Count)
system.cpu1.mmu.l2_shared.flushedEntries           28                       # Number of entries that have been flushed from TLB (Count)
system.cpu1.mmu.l2_shared.readAccesses            240                       # Read accesses (Count)
system.cpu1.mmu.l2_shared.writeAccesses            56                       # Write accesses (Count)
system.cpu1.mmu.l2_shared.instAccesses            651                       # Inst accesses (Count)
system.cpu1.mmu.l2_shared.hits                    856                       # Total TLB (inst and data) hits (Count)
system.cpu1.mmu.l2_shared.misses                   91                       # Total TLB (inst and data) misses (Count)
system.cpu1.mmu.l2_shared.accesses                947                       # Total TLB (inst and data) accesses (Count)
system.cpu1.mmu.stage2_dtb.readHits                 0                       # Read hits (Count)
system.cpu1.mmu.stage2_dtb.readMisses               0                       # Read misses (Count)
system.cpu1.mmu.stage2_dtb.writeHits                0                       # Write hits (Count)
system.cpu1.mmu.stage2_dtb.writeMisses              0                       # Write misses (Count)
system.cpu1.mmu.stage2_dtb.inserts                  0                       # Number of times an entry is inserted into the TLB (Count)
system.cpu1.mmu.stage2_dtb.flushTlb                 0                       # Number of times complete TLB was flushed (Count)
system.cpu1.mmu.stage2_dtb.flushTlbMva              0                       # Number of times TLB was flushed by MVA (Count)
system.cpu1.mmu.stage2_dtb.flushTlbMvaAsid            0                       # Number of times TLB was flushed by MVA & ASID (Count)
system.cpu1.mmu.stage2_dtb.flushTlbAsid             0                       # Number of times TLB was flushed by ASID (Count)
system.cpu1.mmu.stage2_dtb.flushedEntries            0                       # Number of entries that have been flushed from TLB (Count)
system.cpu1.mmu.stage2_dtb.readAccesses             0                       # Read accesses (Count)
system.cpu1.mmu.stage2_dtb.writeAccesses            0                       # Write accesses (Count)
system.cpu1.mmu.stage2_dtb.hits                     0                       # Total TLB (inst and data) hits (Count)
system.cpu1.mmu.stage2_dtb.misses                   0                       # Total TLB (inst and data) misses (Count)
system.cpu1.mmu.stage2_dtb.accesses                 0                       # Total TLB (inst and data) accesses (Count)
system.cpu1.mmu.stage2_dtb_walker.walks             0                       # Table walker walks requested (Count)
system.cpu1.mmu.stage2_dtb_walker.requestOrigin_Requested::Data            0                       # Table walker requests started/completed, data/inst (Count)
system.cpu1.mmu.stage2_dtb_walker.requestOrigin_Requested::Inst            0                       # Table walker requests started/completed, data/inst (Count)
system.cpu1.mmu.stage2_dtb_walker.requestOrigin_Requested::total            0                       # Table walker requests started/completed, data/inst (Count)
system.cpu1.mmu.stage2_dtb_walker.requestOrigin_Completed::Data            0                       # Table walker requests started/completed, data/inst (Count)
system.cpu1.mmu.stage2_dtb_walker.requestOrigin_Completed::Inst            0                       # Table walker requests started/completed, data/inst (Count)
system.cpu1.mmu.stage2_dtb_walker.requestOrigin_Completed::total            0                       # Table walker requests started/completed, data/inst (Count)
system.cpu1.mmu.stage2_dtb_walker.requestOrigin::total            0                       # Table walker requests started/completed, data/inst (Count)
system.cpu1.mmu.stage2_dtb_walker.power_state.pwrStateResidencyTicks::UNDEFINED 581277988500                       # Cumulative time (in ticks) in various power states (Tick)
system.cpu1.mmu.stage2_itb.instHits                 0                       # Inst hits (Count)
system.cpu1.mmu.stage2_itb.instMisses               0                       # Inst misses (Count)
system.cpu1.mmu.stage2_itb.inserts                  0                       # Number of times an entry is inserted into the TLB (Count)
system.cpu1.mmu.stage2_itb.flushTlb                 0                       # Number of times complete TLB was flushed (Count)
system.cpu1.mmu.stage2_itb.flushTlbMva              0                       # Number of times TLB was flushed by MVA (Count)
system.cpu1.mmu.stage2_itb.flushTlbMvaAsid            0                       # Number of times TLB was flushed by MVA & ASID (Count)
system.cpu1.mmu.stage2_itb.flushTlbAsid             0                       # Number of times TLB was flushed by ASID (Count)
system.cpu1.mmu.stage2_itb.flushedEntries            0                       # Number of entries that have been flushed from TLB (Count)
system.cpu1.mmu.stage2_itb.instAccesses             0                       # Inst accesses (Count)
system.cpu1.mmu.stage2_itb.hits                     0                       # Total TLB (inst and data) hits (Count)
system.cpu1.mmu.stage2_itb.misses                   0                       # Total TLB (inst and data) misses (Count)
system.cpu1.mmu.stage2_itb.accesses                 0                       # Total TLB (inst and data) accesses (Count)
system.cpu1.mmu.stage2_itb_walker.walks             0                       # Table walker walks requested (Count)
system.cpu1.mmu.stage2_itb_walker.requestOrigin_Requested::Data            0                       # Table walker requests started/completed, data/inst (Count)
system.cpu1.mmu.stage2_itb_walker.requestOrigin_Requested::Inst            0                       # Table walker requests started/completed, data/inst (Count)
system.cpu1.mmu.stage2_itb_walker.requestOrigin_Requested::total            0                       # Table walker requests started/completed, data/inst (Count)
system.cpu1.mmu.stage2_itb_walker.requestOrigin_Completed::Data            0                       # Table walker requests started/completed, data/inst (Count)
system.cpu1.mmu.stage2_itb_walker.requestOrigin_Completed::Inst            0                       # Table walker requests started/completed, data/inst (Count)
system.cpu1.mmu.stage2_itb_walker.requestOrigin_Completed::total            0                       # Table walker requests started/completed, data/inst (Count)
system.cpu1.mmu.stage2_itb_walker.requestOrigin::total            0                       # Table walker requests started/completed, data/inst (Count)
system.cpu1.mmu.stage2_itb_walker.power_state.pwrStateResidencyTicks::UNDEFINED 581277988500                       # Cumulative time (in ticks) in various power states (Tick)
system.cpu1.power_state.numTransitions             23                       # Number of power state transitions (Count)
system.cpu1.power_state.ticksClkGated::samples           12                       # Distribution of time spent in the clock gated state (Tick)
system.cpu1.power_state.ticksClkGated::mean 91417700.416667                       # Distribution of time spent in the clock gated state (Tick)
system.cpu1.power_state.ticksClkGated::stdev 68246869.143040                       # Distribution of time spent in the clock gated state (Tick)
system.cpu1.power_state.ticksClkGated::underflows            1      8.33%      8.33% # Distribution of time spent in the clock gated state (Tick)
system.cpu1.power_state.ticksClkGated::1000-5e+10           11     91.67%    100.00% # Distribution of time spent in the clock gated state (Tick)
system.cpu1.power_state.ticksClkGated::min_value          501                       # Distribution of time spent in the clock gated state (Tick)
system.cpu1.power_state.ticksClkGated::max_value    162416068                       # Distribution of time spent in the clock gated state (Tick)
system.cpu1.power_state.ticksClkGated::total           12                       # Distribution of time spent in the clock gated state (Tick)
system.cpu1.power_state.pwrStateResidencyTicks::ON   4259129095                       # Cumulative time (in ticks) in various power states (Tick)
system.cpu1.power_state.pwrStateResidencyTicks::CLK_GATED   1097012405                       # Cumulative time (in ticks) in various power states (Tick)
system.cpu1.thread_0.numInsts                       0                       # Number of Instructions committed (Count)
system.cpu1.thread_0.numOps                         0                       # Number of Ops committed (Count)
system.cpu1.thread_0.numMemRefs                     0                       # Number of Memory References (Count)
system.cpu2.numCycles                        10416587                       # Number of cpu cycles simulated (Cycle)
system.cpu2.numWorkItemsStarted                     0                       # Number of work items this cpu started (Count)
system.cpu2.numWorkItemsCompleted                   0                       # Number of work items this cpu completed (Count)
system.cpu2.exec_context.thread_0.numInsts        27129                       # Number of instructions committed (Count)
system.cpu2.exec_context.thread_0.numOps        34446                       # Number of ops (including micro ops) committed (Count)
system.cpu2.exec_context.thread_0.numIntAluAccesses        33486                       # Number of integer alu accesses (Count)
system.cpu2.exec_context.thread_0.numFpAluAccesses            0                       # Number of float alu accesses (Count)
system.cpu2.exec_context.thread_0.numVecAluAccesses            0                       # Number of vector alu accesses (Count)
system.cpu2.exec_context.thread_0.numCallsReturns         3560                       # Number of times a function call or return occured (Count)
system.cpu2.exec_context.thread_0.numCondCtrlInsts         2045                       # Number of instructions that are conditional controls (Count)
system.cpu2.exec_context.thread_0.numIntInsts        33486                       # Number of integer instructions (Count)
system.cpu2.exec_context.thread_0.numFpInsts            0                       # Number of float instructions (Count)
system.cpu2.exec_context.thread_0.numVecInsts            0                       # Number of vector instructions (Count)
system.cpu2.exec_context.thread_0.numIntRegReads        34998                       # Number of times the integer registers were read (Count)
system.cpu2.exec_context.thread_0.numIntRegWrites        26174                       # Number of times the integer registers were written (Count)
system.cpu2.exec_context.thread_0.numFpRegReads            0                       # Number of times the floating registers were read (Count)
system.cpu2.exec_context.thread_0.numFpRegWrites            0                       # Number of times the floating registers were written (Count)
system.cpu2.exec_context.thread_0.numVecRegReads            0                       # Number of times the vector registers were read (Count)
system.cpu2.exec_context.thread_0.numVecRegWrites            0                       # Number of times the vector registers were written (Count)
system.cpu2.exec_context.thread_0.numVecPredRegReads            0                       # Number of times the predicate registers were read (Count)
system.cpu2.exec_context.thread_0.numVecPredRegWrites            0                       # Number of times the predicate registers were written (Count)
system.cpu2.exec_context.thread_0.numCCRegReads         2151                       # Number of times the CC registers were read (Count)
system.cpu2.exec_context.thread_0.numCCRegWrites         2058                       # Number of times the CC registers were written (Count)
system.cpu2.exec_context.thread_0.numMiscRegReads         6665                       # Number of times the Misc registers were read (Count)
system.cpu2.exec_context.thread_0.numMiscRegWrites          390                       # Number of times the Misc registers were written (Count)
system.cpu2.exec_context.thread_0.numMemRefs        11206                       # Number of memory refs (Count)
system.cpu2.exec_context.thread_0.numLoadInsts         5970                       # Number of load instructions (Count)
system.cpu2.exec_context.thread_0.numStoreInsts         5236                       # Number of store instructions (Count)
system.cpu2.exec_context.thread_0.numIdleCycles 10382641.615510                       # Number of idle cycles (Cycle)
system.cpu2.exec_context.thread_0.numBusyCycles 33945.384490                       # Number of busy cycles (Cycle)
system.cpu2.exec_context.thread_0.notIdleFraction     0.003259                       # Percentage of non-idle cycles (Ratio)
system.cpu2.exec_context.thread_0.idleFraction     0.996741                       # Percentage of idle cycles (Ratio)
system.cpu2.exec_context.thread_0.numBranches         5644                       # Number of branches fetched (Count)
system.cpu2.exec_context.thread_0.statExecutedInstType::No_OpClass            0      0.00%      0.00% # Class of executed instruction. (Count)
system.cpu2.exec_context.thread_0.statExecutedInstType::IntAlu        23218     67.40%     67.40% # Class of executed instruction. (Count)
system.cpu2.exec_context.thread_0.statExecutedInstType::IntMult           22      0.06%     67.47% # Class of executed instruction. (Count)
system.cpu2.exec_context.thread_0.statExecutedInstType::IntDiv            0      0.00%     67.47% # Class of executed instruction. (Count)
system.cpu2.exec_context.thread_0.statExecutedInstType::FloatAdd            0      0.00%     67.47% # Class of executed instruction. (Count)
system.cpu2.exec_context.thread_0.statExecutedInstType::FloatCmp            0      0.00%     67.47% # Class of executed instruction. (Count)
system.cpu2.exec_context.thread_0.statExecutedInstType::FloatCvt            0      0.00%     67.47% # Class of executed instruction. (Count)
system.cpu2.exec_context.thread_0.statExecutedInstType::FloatMult            0      0.00%     67.47% # Class of executed instruction. (Count)
system.cpu2.exec_context.thread_0.statExecutedInstType::FloatMultAcc            0      0.00%     67.47% # Class of executed instruction. (Count)
system.cpu2.exec_context.thread_0.statExecutedInstType::FloatDiv            0      0.00%     67.47% # Class of executed instruction. (Count)
system.cpu2.exec_context.thread_0.statExecutedInstType::FloatMisc            0      0.00%     67.47% # Class of executed instruction. (Count)
system.cpu2.exec_context.thread_0.statExecutedInstType::FloatSqrt            0      0.00%     67.47% # Class of executed instruction. (Count)
system.cpu2.exec_context.thread_0.statExecutedInstType::SimdAdd            0      0.00%     67.47% # Class of executed instruction. (Count)
system.cpu2.exec_context.thread_0.statExecutedInstType::SimdAddAcc            0      0.00%     67.47% # Class of executed instruction. (Count)
system.cpu2.exec_context.thread_0.statExecutedInstType::SimdAlu            0      0.00%     67.47% # Class of executed instruction. (Count)
system.cpu2.exec_context.thread_0.statExecutedInstType::SimdCmp            0      0.00%     67.47% # Class of executed instruction. (Count)
system.cpu2.exec_context.thread_0.statExecutedInstType::SimdCvt            0      0.00%     67.47% # Class of executed instruction. (Count)
system.cpu2.exec_context.thread_0.statExecutedInstType::SimdMisc            0      0.00%     67.47% # Class of executed instruction. (Count)
system.cpu2.exec_context.thread_0.statExecutedInstType::SimdMult            0      0.00%     67.47% # Class of executed instruction. (Count)
system.cpu2.exec_context.thread_0.statExecutedInstType::SimdMultAcc            0      0.00%     67.47% # Class of executed instruction. (Count)
system.cpu2.exec_context.thread_0.statExecutedInstType::SimdShift            0      0.00%     67.47% # Class of executed instruction. (Count)
system.cpu2.exec_context.thread_0.statExecutedInstType::SimdShiftAcc            0      0.00%     67.47% # Class of executed instruction. (Count)
system.cpu2.exec_context.thread_0.statExecutedInstType::SimdDiv            0      0.00%     67.47% # Class of executed instruction. (Count)
system.cpu2.exec_context.thread_0.statExecutedInstType::SimdSqrt            0      0.00%     67.47% # Class of executed instruction. (Count)
system.cpu2.exec_context.thread_0.statExecutedInstType::SimdFloatAdd            0      0.00%     67.47% # Class of executed instruction. (Count)
system.cpu2.exec_context.thread_0.statExecutedInstType::SimdFloatAlu            0      0.00%     67.47% # Class of executed instruction. (Count)
system.cpu2.exec_context.thread_0.statExecutedInstType::SimdFloatCmp            0      0.00%     67.47% # Class of executed instruction. (Count)
system.cpu2.exec_context.thread_0.statExecutedInstType::SimdFloatCvt            0      0.00%     67.47% # Class of executed instruction. (Count)
system.cpu2.exec_context.thread_0.statExecutedInstType::SimdFloatDiv            0      0.00%     67.47% # Class of executed instruction. (Count)
system.cpu2.exec_context.thread_0.statExecutedInstType::SimdFloatMisc            0      0.00%     67.47% # Class of executed instruction. (Count)
system.cpu2.exec_context.thread_0.statExecutedInstType::SimdFloatMult            0      0.00%     67.47% # Class of executed instruction. (Count)
system.cpu2.exec_context.thread_0.statExecutedInstType::SimdFloatMultAcc            0      0.00%     67.47% # Class of executed instruction. (Count)
system.cpu2.exec_context.thread_0.statExecutedInstType::SimdFloatSqrt            0      0.00%     67.47% # Class of executed instruction. (Count)
system.cpu2.exec_context.thread_0.statExecutedInstType::SimdReduceAdd            0      0.00%     67.47% # Class of executed instruction. (Count)
system.cpu2.exec_context.thread_0.statExecutedInstType::SimdReduceAlu            0      0.00%     67.47% # Class of executed instruction. (Count)
system.cpu2.exec_context.thread_0.statExecutedInstType::SimdReduceCmp            0      0.00%     67.47% # Class of executed instruction. (Count)
system.cpu2.exec_context.thread_0.statExecutedInstType::SimdFloatReduceAdd            0      0.00%     67.47% # Class of executed instruction. (Count)
system.cpu2.exec_context.thread_0.statExecutedInstType::SimdFloatReduceCmp            0      0.00%     67.47% # Class of executed instruction. (Count)
system.cpu2.exec_context.thread_0.statExecutedInstType::SimdAes            0      0.00%     67.47% # Class of executed instruction. (Count)
system.cpu2.exec_context.thread_0.statExecutedInstType::SimdAesMix            0      0.00%     67.47% # Class of executed instruction. (Count)
system.cpu2.exec_context.thread_0.statExecutedInstType::SimdSha1Hash            0      0.00%     67.47% # Class of executed instruction. (Count)
system.cpu2.exec_context.thread_0.statExecutedInstType::SimdSha1Hash2            0      0.00%     67.47% # Class of executed instruction. (Count)
system.cpu2.exec_context.thread_0.statExecutedInstType::SimdSha256Hash            0      0.00%     67.47% # Class of executed instruction. (Count)
system.cpu2.exec_context.thread_0.statExecutedInstType::SimdSha256Hash2            0      0.00%     67.47% # Class of executed instruction. (Count)
system.cpu2.exec_context.thread_0.statExecutedInstType::SimdShaSigma2            0      0.00%     67.47% # Class of executed instruction. (Count)
system.cpu2.exec_context.thread_0.statExecutedInstType::SimdShaSigma3            0      0.00%     67.47% # Class of executed instruction. (Count)
system.cpu2.exec_context.thread_0.statExecutedInstType::SimdPredAlu            0      0.00%     67.47% # Class of executed instruction. (Count)
system.cpu2.exec_context.thread_0.statExecutedInstType::MemRead         5970     17.33%     84.80% # Class of executed instruction. (Count)
system.cpu2.exec_context.thread_0.statExecutedInstType::MemWrite         5236     15.20%    100.00% # Class of executed instruction. (Count)
system.cpu2.exec_context.thread_0.statExecutedInstType::FloatMemRead            0      0.00%    100.00% # Class of executed instruction. (Count)
system.cpu2.exec_context.thread_0.statExecutedInstType::FloatMemWrite            0      0.00%    100.00% # Class of executed instruction. (Count)
system.cpu2.exec_context.thread_0.statExecutedInstType::IprAccess            0      0.00%    100.00% # Class of executed instruction. (Count)
system.cpu2.exec_context.thread_0.statExecutedInstType::InstPrefetch            0      0.00%    100.00% # Class of executed instruction. (Count)
system.cpu2.exec_context.thread_0.statExecutedInstType::total        34446                       # Class of executed instruction. (Count)
system.cpu2.mmu.alignFaults                         0                       # Number of MMU faults due to alignment restrictions (Count)
system.cpu2.mmu.prefetchFaults                      0                       # Number of MMU faults due to prefetch (Count)
system.cpu2.mmu.domainFaults                        0                       # Number of MMU faults due to domain restrictions (Count)
system.cpu2.mmu.permsFaults                         0                       # Number of MMU faults due to permissions restrictions (Count)
system.cpu2.mmu.dtb.readHits                     5970                       # Read hits (Count)
system.cpu2.mmu.dtb.readMisses                      0                       # Read misses (Count)
system.cpu2.mmu.dtb.writeHits                    5236                       # Write hits (Count)
system.cpu2.mmu.dtb.writeMisses                     0                       # Write misses (Count)
system.cpu2.mmu.dtb.inserts                         0                       # Number of times an entry is inserted into the TLB (Count)
system.cpu2.mmu.dtb.flushTlb                        0                       # Number of times complete TLB was flushed (Count)
system.cpu2.mmu.dtb.flushTlbMva                     0                       # Number of times TLB was flushed by MVA (Count)
system.cpu2.mmu.dtb.flushTlbMvaAsid               126                       # Number of times TLB was flushed by MVA & ASID (Count)
system.cpu2.mmu.dtb.flushTlbAsid                    6                       # Number of times TLB was flushed by ASID (Count)
system.cpu2.mmu.dtb.flushedEntries                  0                       # Number of entries that have been flushed from TLB (Count)
system.cpu2.mmu.dtb.readAccesses                 5970                       # Read accesses (Count)
system.cpu2.mmu.dtb.writeAccesses                5236                       # Write accesses (Count)
system.cpu2.mmu.dtb.hits                        11206                       # Total TLB (inst and data) hits (Count)
system.cpu2.mmu.dtb.misses                          0                       # Total TLB (inst and data) misses (Count)
system.cpu2.mmu.dtb.accesses                    11206                       # Total TLB (inst and data) accesses (Count)
system.cpu2.mmu.dtb_walker.walks                    0                       # Table walker walks requested (Count)
system.cpu2.mmu.dtb_walker.requestOrigin_Requested::Data            0                       # Table walker requests started/completed, data/inst (Count)
system.cpu2.mmu.dtb_walker.requestOrigin_Requested::Inst            0                       # Table walker requests started/completed, data/inst (Count)
system.cpu2.mmu.dtb_walker.requestOrigin_Requested::total            0                       # Table walker requests started/completed, data/inst (Count)
system.cpu2.mmu.dtb_walker.requestOrigin_Completed::Data            0                       # Table walker requests started/completed, data/inst (Count)
system.cpu2.mmu.dtb_walker.requestOrigin_Completed::Inst            0                       # Table walker requests started/completed, data/inst (Count)
system.cpu2.mmu.dtb_walker.requestOrigin_Completed::total            0                       # Table walker requests started/completed, data/inst (Count)
system.cpu2.mmu.dtb_walker.requestOrigin::total            0                       # Table walker requests started/completed, data/inst (Count)
system.cpu2.mmu.dtb_walker.power_state.pwrStateResidencyTicks::UNDEFINED 581277988500                       # Cumulative time (in ticks) in various power states (Tick)
system.cpu2.mmu.itb.instHits                    27114                       # Inst hits (Count)
system.cpu2.mmu.itb.instMisses                     15                       # Inst misses (Count)
system.cpu2.mmu.itb.inserts                        15                       # Number of times an entry is inserted into the TLB (Count)
system.cpu2.mmu.itb.flushTlb                        0                       # Number of times complete TLB was flushed (Count)
system.cpu2.mmu.itb.flushTlbMva                     0                       # Number of times TLB was flushed by MVA (Count)
system.cpu2.mmu.itb.flushTlbMvaAsid               126                       # Number of times TLB was flushed by MVA & ASID (Count)
system.cpu2.mmu.itb.flushTlbAsid                    6                       # Number of times TLB was flushed by ASID (Count)
system.cpu2.mmu.itb.flushedEntries                  0                       # Number of entries that have been flushed from TLB (Count)
system.cpu2.mmu.itb.instAccesses                27129                       # Inst accesses (Count)
system.cpu2.mmu.itb.hits                        27114                       # Total TLB (inst and data) hits (Count)
system.cpu2.mmu.itb.misses                         15                       # Total TLB (inst and data) misses (Count)
system.cpu2.mmu.itb.accesses                    27129                       # Total TLB (inst and data) accesses (Count)
system.cpu2.mmu.itb_walker.walks                    0                       # Table walker walks requested (Count)
system.cpu2.mmu.itb_walker.requestOrigin_Requested::Data            0                       # Table walker requests started/completed, data/inst (Count)
system.cpu2.mmu.itb_walker.requestOrigin_Requested::Inst            0                       # Table walker requests started/completed, data/inst (Count)
[...]
system.membus.pktSize_system.cpu3.icache_port::system.mem_ctrls.port       109536                       # Cumulative packet size per connected requestor and responder (Byte)
system.membus.pktSize_system.cpu3.icache_port::total       109536                       # Cumulative packet size per connected requestor and responder (Byte)
system.membus.pktSize_system.cpu3.dcache_port::system.bridge.cpu_side_port            8                       # Cumulative packet size per connected requestor and responder (Byte)
system.membus.pktSize_system.cpu3.dcache_port::system.realview.gic.pio           24                       # Cumulative packet size per connected requestor and responder (Byte)
system.membus.pktSize_system.cpu3.dcache_port::system.mem_ctrls.port        97852                       # Cumulative packet size per connected requestor and responder (Byte)
system.membus.pktSize_system.cpu3.dcache_port::total        97884                       # Cumulative packet size per connected requestor and responder (Byte)
system.membus.pktSize_system.cpu3.mmu.itb_walker.port::system.mem_ctrls.port           80                       # Cumulative packet size per connected requestor and responder (Byte)
system.membus.pktSize_system.cpu3.mmu.itb_walker.port::total           80                       # Cumulative packet size per connected requestor and responder (Byte)
system.membus.pktSize_system.cpu3.mmu.dtb_walker.port::system.mem_ctrls.port            8                       # Cumulative packet size per connected requestor and responder (Byte)
system.membus.pktSize_system.cpu3.mmu.dtb_walker.port::total            8                       # Cumulative packet size per connected requestor and responder (Byte)
system.membus.pktSize_system.cpu4.icache_port::system.mem_ctrls.port       109536                       # Cumulative packet size per connected requestor and responder (Byte)
system.membus.pktSize_system.cpu4.icache_port::total       109536                       # Cumulative packet size per connected requestor and responder (Byte)
system.membus.pktSize_system.cpu4.dcache_port::system.bridge.cpu_side_port            8                       # Cumulative packet size per connected requestor and responder (Byte)
system.membus.pktSize_system.cpu4.dcache_port::system.realview.gic.pio           24                       # Cumulative packet size per connected requestor and responder (Byte)
system.membus.pktSize_system.cpu4.dcache_port::system.mem_ctrls.port        97852                       # Cumulative packet size per connected requestor and responder (Byte)
system.membus.pktSize_system.cpu4.dcache_port::total        97884                       # Cumulative packet size per connected requestor and responder (Byte)
system.membus.pktSize_system.cpu4.mmu.itb_walker.port::system.mem_ctrls.port           80                       # Cumulative packet size per connected requestor and responder (Byte)
system.membus.pktSize_system.cpu4.mmu.itb_walker.port::total           80                       # Cumulative packet size per connected requestor and responder (Byte)
system.membus.pktSize_system.cpu4.mmu.dtb_walker.port::system.mem_ctrls.port            8                       # Cumulative packet size per connected requestor and responder (Byte)
system.membus.pktSize_system.cpu4.mmu.dtb_walker.port::total            8                       # Cumulative packet size per connected requestor and responder (Byte)
system.membus.pktSize_system.cpu5.icache_port::system.mem_ctrls.port     27997528                       # Cumulative packet size per connected requestor and responder (Byte)
system.membus.pktSize_system.cpu5.icache_port::total     27997528                       # Cumulative packet size per connected requestor and responder (Byte)
system.membus.pktSize_system.cpu5.dcache_port::system.bridge.cpu_side_port           28                       # Cumulative packet size per connected requestor and responder (Byte)
system.membus.pktSize_system.cpu5.dcache_port::system.realview.gic.pio           36                       # Cumulative packet size per connected requestor and responder (Byte)
system.membus.pktSize_system.cpu5.dcache_port::system.mem_ctrls.port      4944002                       # Cumulative packet size per connected requestor and responder (Byte)
system.membus.pktSize_system.cpu5.dcache_port::total      4944066                       # Cumulative packet size per connected requestor and responder (Byte)
system.membus.pktSize_system.cpu5.mmu.itb_walker.port::system.mem_ctrls.port         1128                       # Cumulative packet size per connected requestor and responder (Byte)
system.membus.pktSize_system.cpu5.mmu.itb_walker.port::total         1128                       # Cumulative packet size per connected requestor and responder (Byte)
system.membus.pktSize_system.cpu5.mmu.dtb_walker.port::system.mem_ctrls.port          936                       # Cumulative packet size per connected requestor and responder (Byte)
system.membus.pktSize_system.cpu5.mmu.dtb_walker.port::total          936                       # Cumulative packet size per connected requestor and responder (Byte)
system.membus.pktSize_system.cpu6.icache_port::system.mem_ctrls.port     28746236                       # Cumulative packet size per connected requestor and responder (Byte)
system.membus.pktSize_system.cpu6.icache_port::total     28746236                       # Cumulative packet size per connected requestor and responder (Byte)
system.membus.pktSize_system.cpu6.dcache_port::system.bridge.cpu_side_port           88                       # Cumulative packet size per connected requestor and responder (Byte)
system.membus.pktSize_system.cpu6.dcache_port::system.realview.gic.pio           80                       # Cumulative packet size per connected requestor and responder (Byte)
system.membus.pktSize_system.cpu6.dcache_port::system.mem_ctrls.port      5655465                       # Cumulative packet size per connected requestor and responder (Byte)
system.membus.pktSize_system.cpu6.dcache_port::total      5655633                       # Cumulative packet size per connected requestor and responder (Byte)
system.membus.pktSize_system.cpu6.mmu.itb_walker.port::system.mem_ctrls.port         3944                       # Cumulative packet size per connected requestor and responder (Byte)
system.membus.pktSize_system.cpu6.mmu.itb_walker.port::total         3944                       # Cumulative packet size per connected requestor and responder (Byte)
system.membus.pktSize_system.cpu6.mmu.dtb_walker.port::system.mem_ctrls.port         2872                       # Cumulative packet size per connected requestor and responder (Byte)
system.membus.pktSize_system.cpu6.mmu.dtb_walker.port::total         2872                       # Cumulative packet size per connected requestor and responder (Byte)
system.membus.pktSize_system.cpu7.icache_port::system.mem_ctrls.port     38223572                       # Cumulative packet size per connected requestor and responder (Byte)
system.membus.pktSize_system.cpu7.icache_port::total     38223572                       # Cumulative packet size per connected requestor and responder (Byte)
system.membus.pktSize_system.cpu7.dcache_port::system.bridge.cpu_side_port          339                       # Cumulative packet size per connected requestor and responder (Byte)
system.membus.pktSize_system.cpu7.dcache_port::system.realview.gic.pio          144                       # Cumulative packet size per connected requestor and responder (Byte)
system.membus.pktSize_system.cpu7.dcache_port::system.mem_ctrls.port     23899073                       # Cumulative packet size per connected requestor and responder (Byte)
system.membus.pktSize_system.cpu7.dcache_port::total     23899556                       # Cumulative packet size per connected requestor and responder (Byte)
system.membus.pktSize_system.cpu7.mmu.itb_walker.port::system.mem_ctrls.port         4616                       # Cumulative packet size per connected requestor and responder (Byte)
system.membus.pktSize_system.cpu7.mmu.itb_walker.port::total         4616                       # Cumulative packet size per connected requestor and responder (Byte)
system.membus.pktSize_system.cpu7.mmu.dtb_walker.port::system.mem_ctrls.port         3736                       # Cumulative packet size per connected requestor and responder (Byte)
system.membus.pktSize_system.cpu7.mmu.dtb_walker.port::total         3736                       # Cumulative packet size per connected requestor and responder (Byte)
system.membus.pktSize::total                199396556                       # Cumulative packet size per connected requestor and responder (Byte)
system.membus.snoops                                0                       # Total snoops (Count)
system.membus.snoopTraffic                          0                       # Total snoop traffic (Byte)
system.membus.snoopFanout::samples           47358139                       # Request fanout histogram (Count)
system.membus.snoopFanout::mean                     0                       # Request fanout histogram (Count)
system.membus.snoopFanout::stdev                    0                       # Request fanout histogram (Count)
system.membus.snoopFanout::underflows               0      0.00%      0.00% # Request fanout histogram (Count)
system.membus.snoopFanout::0                 47358139    100.00%    100.00% # Request fanout histogram (Count)
system.membus.snoopFanout::1                        0      0.00%    100.00% # Request fanout histogram (Count)
system.membus.snoopFanout::2                        0      0.00%    100.00% # Request fanout histogram (Count)
system.membus.snoopFanout::3                        0      0.00%    100.00% # Request fanout histogram (Count)
system.membus.snoopFanout::4                        0      0.00%    100.00% # Request fanout histogram (Count)
system.membus.snoopFanout::5                        0      0.00%    100.00% # Request fanout histogram (Count)
system.membus.snoopFanout::6                        0      0.00%    100.00% # Request fanout histogram (Count)
system.membus.snoopFanout::7                        0      0.00%    100.00% # Request fanout histogram (Count)
system.membus.snoopFanout::8                        0      0.00%    100.00% # Request fanout histogram (Count)
system.membus.snoopFanout::overflows                0      0.00%    100.00% # Request fanout histogram (Count)
system.membus.snoopFanout::min_value                0                       # Request fanout histogram (Count)
system.membus.snoopFanout::max_value                0                       # Request fanout histogram (Count)
system.membus.snoopFanout::total             47358139                       # Request fanout histogram (Count)
system.membus.badaddr_responder.power_state.pwrStateResidencyTicks::UNDEFINED 581277988500                       # Cumulative time (in ticks) in various power states (Tick)
system.membus.power_state.pwrStateResidencyTicks::UNDEFINED 581277988500                       # Cumulative time (in ticks) in various power states (Tick)
system.membus.snoop_filter.totRequests           7616                       # Total number of requests made to the snoop filter. (Count)
system.membus.snoop_filter.hitSingleRequests            0                       # Number of requests hitting in the snoop filter with a single holder of the requested data. (Count)
system.membus.snoop_filter.hitMultiRequests            0                       # Number of requests hitting in the snoop filter with multiple (>1) holders of the requested data. (Count)
system.membus.snoop_filter.totSnoops                0                       # Total number of snoops made to the snoop filter. (Count)
system.membus.snoop_filter.hitSingleSnoops            0                       # Number of snoops hitting in the snoop filter with a single holder of the requested data. (Count)
system.membus.snoop_filter.hitMultiSnoops            0                       # Number of snoops hitting in the snoop filter with multiple (>1) holders of the requested data. (Count)
system.pci_ide.disks.IdeDisk.dmaReadFullPages            0                       # Number of full page size DMA reads (not PRD). (Count)
system.pci_ide.disks.IdeDisk.dmaReadBytes            0                       # Number of bytes transfered via DMA reads (not PRD). (Byte)
system.pci_ide.disks.IdeDisk.dmaReadTxs             0                       # Number of DMA read transactions (not PRD). (Count)
system.pci_ide.disks.IdeDisk.dmaWriteFullPages          137                       # Number of full page size DMA writes. (Count)
system.pci_ide.disks.IdeDisk.dmaWriteBytes       561152                       # Number of bytes transfered via DMA writes. (Byte)
system.pci_ide.disks.IdeDisk.dmaWriteTxs          137                       # Number of DMA write transactions. (Count)
system.pci_ide.power_state.pwrStateResidencyTicks::UNDEFINED 581277988500                       # Cumulative time (in ticks) in various power states (Tick)
system.realview.bootmem.power_state.pwrStateResidencyTicks::UNDEFINED 581277988500                       # Cumulative time (in ticks) in various power states (Tick)
system.realview.clock24MHz.clock                41667                       # Clock period in ticks (Tick)
system.realview.clock32KHz.clock             31250000                       # Clock period in ticks (Tick)
system.realview.dcc.osc_cpu.clock               16667                       # Clock period in ticks (Tick)
system.realview.dcc.osc_ddr.clock               25000                       # Clock period in ticks (Tick)
system.realview.dcc.osc_hsbm.clock              25000                       # Clock period in ticks (Tick)
system.realview.dcc.osc_pxl.clock               42105                       # Clock period in ticks (Tick)
system.realview.dcc.osc_smb.clock               20000                       # Clock period in ticks (Tick)
system.realview.dcc.osc_sys.clock               16667                       # Clock period in ticks (Tick)
system.realview.el2_watchdog.power_state.pwrStateResidencyTicks::UNDEFINED 581277988500                       # Cumulative time (in ticks) in various power states (Tick)
system.realview.energy_ctrl.power_state.pwrStateResidencyTicks::UNDEFINED 581277988500                       # Cumulative time (in ticks) in various power states (Tick)
system.realview.flash0.power_state.pwrStateResidencyTicks::UNDEFINED 581277988500                       # Cumulative time (in ticks) in various power states (Tick)
system.realview.flash1.power_state.pwrStateResidencyTicks::UNDEFINED 581277988500                       # Cumulative time (in ticks) in various power states (Tick)
system.realview.generic_timer_mem.frames0.power_state.pwrStateResidencyTicks::UNDEFINED 581277988500                       # Cumulative time (in ticks) in various power states (Tick)
system.realview.generic_timer_mem.frames1.power_state.pwrStateResidencyTicks::UNDEFINED 581277988500                       # Cumulative time (in ticks) in various power states (Tick)
system.realview.generic_timer_mem.power_state.pwrStateResidencyTicks::UNDEFINED 581277988500                       # Cumulative time (in ticks) in various power states (Tick)
system.realview.gic.power_state.pwrStateResidencyTicks::UNDEFINED 581277988500                       # Cumulative time (in ticks) in various power states (Tick)
system.realview.gicv2m.power_state.pwrStateResidencyTicks::UNDEFINED 581277988500                       # Cumulative time (in ticks) in various power states (Tick)
system.realview.io_voltage.voltage           3.300000                       # Voltage in Volts (Volt)
system.realview.kmi0.power_state.pwrStateResidencyTicks::UNDEFINED 581277988500                       # Cumulative time (in ticks) in various power states (Tick)
system.realview.kmi1.power_state.pwrStateResidencyTicks::UNDEFINED 581277988500                       # Cumulative time (in ticks) in various power states (Tick)
system.realview.mcc.osc_clcd.clock              42105                       # Clock period in ticks (Tick)
system.realview.mcc.osc_mcc.clock               20000                       # Clock period in ticks (Tick)
system.realview.mcc.osc_peripheral.clock        41667                       # Clock period in ticks (Tick)
system.realview.mcc.osc_system_bus.clock        41667                       # Clock period in ticks (Tick)
system.realview.non_trusted_sram.power_state.pwrStateResidencyTicks::UNDEFINED 581277988500                       # Cumulative time (in ticks) in various power states (Tick)
system.realview.pci_host.power_state.pwrStateResidencyTicks::UNDEFINED 581277988500                       # Cumulative time (in ticks) in various power states (Tick)
system.realview.pwr_ctrl.power_state.pwrStateResidencyTicks::UNDEFINED 581277988500                       # Cumulative time (in ticks) in various power states (Tick)
system.realview.realview_io.power_state.pwrStateResidencyTicks::UNDEFINED 581277988500                       # Cumulative time (in ticks) in various power states (Tick)
system.realview.rtc.power_state.pwrStateResidencyTicks::UNDEFINED 581277988500                       # Cumulative time (in ticks) in various power states (Tick)
system.realview.system_watchdog.power_state.pwrStateResidencyTicks::UNDEFINED 581277988500                       # Cumulative time (in ticks) in various power states (Tick)
system.realview.trusted_dram.power_state.pwrStateResidencyTicks::UNDEFINED 581277988500                       # Cumulative time (in ticks) in various power states (Tick)
system.realview.trusted_sram.power_state.pwrStateResidencyTicks::UNDEFINED 581277988500                       # Cumulative time (in ticks) in various power states (Tick)
system.realview.trusted_watchdog.power_state.pwrStateResidencyTicks::UNDEFINED 581277988500                       # Cumulative time (in ticks) in various power states (Tick)
system.realview.uart0.power_state.pwrStateResidencyTicks::UNDEFINED 581277988500                       # Cumulative time (in ticks) in various power states (Tick)
system.realview.uart1.power_state.pwrStateResidencyTicks::UNDEFINED 581277988500                       # Cumulative time (in ticks) in various power states (Tick)
system.realview.uart2.power_state.pwrStateResidencyTicks::UNDEFINED 581277988500                       # Cumulative time (in ticks) in various power states (Tick)
system.realview.uart3.power_state.pwrStateResidencyTicks::UNDEFINED 581277988500                       # Cumulative time (in ticks) in various power states (Tick)
system.realview.vgic.power_state.pwrStateResidencyTicks::UNDEFINED 581277988500                       # Cumulative time (in ticks) in various power states (Tick)
system.realview.vio0.power_state.pwrStateResidencyTicks::UNDEFINED 581277988500                       # Cumulative time (in ticks) in various power states (Tick)
system.realview.vio1.power_state.pwrStateResidencyTicks::UNDEFINED 581277988500                       # Cumulative time (in ticks) in various power states (Tick)
system.realview.vram.power_state.pwrStateResidencyTicks::UNDEFINED 581277988500                       # Cumulative time (in ticks) in various power states (Tick)
system.realview.watchdog.power_state.pwrStateResidencyTicks::UNDEFINED 581277988500                       # Cumulative time (in ticks) in various power states (Tick)
system.voltage_domain.voltage                       1                       # Voltage in Volts (Volt)
system.workload.inst.arm                            0                       # number of arm instructions executed (Count)
system.workload.inst.quiesce                      159                       # number of quiesce instructions executed (Count)

---------- End Simulation Statistics   ----------
