
---------- Begin Simulation Statistics ----------
simSeconds                                   0.004030                       # Number of seconds simulated (Second)
simTicks                                   4030233500                       # Number of ticks simulated (Tick)
finalTick                                580025556000                       # Number of ticks from beginning of simulation (restored from checkpoints and never reset) (Tick)
simFreq                                  1000000000000                       # The number of ticks per simulated second ((Tick/Second))
hostSeconds                                     30.99                       # Real time elapsed on the host (Second)
hostTickRate                                130037040                       # The number of ticks simulated per host second (ticks/s) ((Tick/Second))
hostMemory                                    1217780                       # Number of bytes of host memory used (Byte)
simInsts                                    181261817                       # Number of instructions simulated (Count)
simOps                                      211892977                       # Number of ops (including micro ops) simulated (Count)
hostInstRate                                  5848429                       # Simulator instruction rate (inst/s) ((Count/Second))
hostOpRate                                    6836736                       # Simulator op (including micro ops) rate (op/s) ((Count/Second))
system.bridge.power_state.pwrStateResidencyTicks::UNDEFINED 580025556000                       # Cumulative time (in ticks) in various power states (Tick)
system.clk_domain.clock                          1000                       # Clock period in ticks (Tick)
system.cpu0.numCycles                         8137950                       # Number of cpu cycles simulated (Cycle)
system.cpu0.numWorkItemsStarted                     0                       # Number of work items this cpu started (Count)
system.cpu0.numWorkItemsCompleted                   0                       # Number of work items this cpu completed (Count)
system.cpu0.exec_context.thread_0.numInsts      4821081                       # Number of instructions committed (Count)
system.cpu0.exec_context.thread_0.numOps      5552296                       # Number of ops (including micro ops) committed (Count)
system.cpu0.exec_context.thread_0.numIntAluAccesses      4922990                       # Number of integer alu accesses (Count)
system.cpu0.exec_context.thread_0.numFpAluAccesses            0                       # Number of float alu accesses (Count)
system.cpu0.exec_context.thread_0.numVecAluAccesses           96                       # Number of vector alu accesses (Count)
system.cpu0.exec_context.thread_0.numCallsReturns       274902                       # Number of times a function call or return occured (Count)
system.cpu0.exec_context.thread_0.numCondCtrlInsts       679741                       # Number of instructions that are conditional controls (Count)
system.cpu0.exec_context.thread_0.numIntInsts      4922990                       # Number of integer instructions (Count)
system.cpu0.exec_context.thread_0.numFpInsts            0                       # Number of float instructions (Count)
system.cpu0.exec_context.thread_0.numVecInsts           96                       # Number of vector instructions (Count)
system.cpu0.exec_context.thread_0.numIntRegReads      6930827                       # Number of times the integer registers were read (Count)
system.cpu0.exec_context.thread_0.numIntRegWrites      3827283                       # Number of times the integer registers were written (Count)
system.cpu0.exec_context.thread_0.numFpRegReads            0                       # Number of times the floating registers were read (Count)
system.cpu0.exec_context.thread_0.numFpRegWrites            0                       # Number of times the floating registers were written (Count)
system.cpu0.exec_context.thread_0.numVecRegReads           64                       # Number of times the vector registers were read (Count)
system.cpu0.exec_context.thread_0.numVecRegWrites           32                       # Number of times the vector registers were written (Count)
system.cpu0.exec_context.thread_0.numVecPredRegReads            0                       # Number of times the predicate registers were read (Count)
system.cpu0.exec_context.thread_0.numVecPredRegWrites            0                       # Number of times the predicate registers were written (Count)
system.cpu0.exec_context.thread_0.numCCRegReads     16470537                       # Number of times the CC registers were read (Count)
system.cpu0.exec_context.thread_0.numCCRegWrites      3608500                       # Number of times the CC registers were written (Count)
system.cpu0.exec_context.thread_0.numMiscRegReads       684811                       # Number of times the Misc registers were read (Count)
system.cpu0.exec_context.thread_0.numMiscRegWrites          603                       # Number of times the Misc registers were written (Count)
system.cpu0.exec_context.thread_0.numMemRefs       697803                       # Number of memory refs (Count)
system.cpu0.exec_context.thread_0.numLoadInsts       371898                       # Number of load instructions (Count)
system.cpu0.exec_context.thread_0.numStoreInsts       325905                       # Number of store instructions (Count)
system.cpu0.exec_context.thread_0.numIdleCycles 2532287.721819                       # Number of idle cycles (Cycle)
system.cpu0.exec_context.thread_0.numBusyCycles 5605662.278181                       # Number of busy cycles (Cycle)
system.cpu0.exec_context.thread_0.notIdleFraction     0.688830                       # Percentage of non-idle cycles (Ratio)
system.cpu0.exec_context.thread_0.idleFraction     0.311170                       # Percentage of idle cycles (Ratio)
system.cpu0.exec_context.thread_0.numBranches       906886                       # Number of branches fetched (Count)
system.cpu0.exec_context.thread_0.statExecutedInstType::No_OpClass            1      0.00%      0.00% # Class of executed instruction. (Count)
system.cpu0.exec_context.thread_0.statExecutedInstType::IntAlu      4685995     84.40%     84.40% # Class of executed instruction. (Count)
system.cpu0.exec_context.thread_0.statExecutedInstType::IntMult       168446      3.03%     87.43% # Class of executed instruction. (Count)
system.cpu0.exec_context.thread_0.statExecutedInstType::IntDiv           53      0.00%     87.43% # Class of executed instruction. (Count)
system.cpu0.exec_context.thread_0.statExecutedInstType::FloatAdd            0      0.00%     87.43% # Class of executed instruction. (Count)
system.cpu0.exec_context.thread_0.statExecutedInstType::FloatCmp            0      0.00%     87.43% # Class of executed instruction. (Count)
system.cpu0.exec_context.thread_0.statExecutedInstType::FloatCvt            0      0.00%     87.43% # Class of executed instruction. (Count)
system.cpu0.exec_context.thread_0.statExecutedInstType::FloatMult            0      0.00%     87.43% # Class of executed instruction. (Count)
system.cpu0.exec_context.thread_0.statExecutedInstType::FloatMultAcc            0      0.00%     87.43% # Class of executed instruction. (Count)
system.cpu0.exec_context.thread_0.statExecutedInstType::FloatDiv            0      0.00%     87.43% # Class of executed instruction. (Count)
system.cpu0.exec_context.thread_0.statExecutedInstType::FloatMisc            0      0.00%     87.43% # Class of executed instruction. (Count)
system.cpu0.exec_context.thread_0.statExecutedInstType::FloatSqrt            0      0.00%     87.43% # Class of executed instruction. (Count)
system.cpu0.exec_context.thread_0.statExecutedInstType::SimdAdd            0      0.00%     87.43% # Class of executed instruction. (Count)
system.cpu0.exec_context.thread_0.statExecutedInstType::SimdAddAcc            0      0.00%     87.43% # Class of executed instruction. (Count)
system.cpu0.exec_context.thread_0.statExecutedInstType::SimdAlu            0      0.00%     87.43% # Class of executed instruction. (Count)
system.cpu0.exec_context.thread_0.statExecutedInstType::SimdCmp            0      0.00%     87.43% # Class of executed instruction. (Count)
system.cpu0.exec_context.thread_0.statExecutedInstType::SimdCvt            0      0.00%     87.43% # Class of executed instruction. (Count)
system.cpu0.exec_context.thread_0.statExecutedInstType::SimdMisc            0      0.00%     87.43% # Class of executed instruction. (Count)
system.cpu0.exec_context.thread_0.statExecutedInstType::SimdMult            0      0.00%     87.43% # Class of executed instruction. (Count)
system.cpu0.exec_context.thread_0.statExecutedInstType::SimdMultAcc            0      0.00%     87.43% # Class of executed instruction. (Count)
system.cpu0.exec_context.thread_0.statExecutedInstType::SimdShift            0      0.00%     87.43% # Class of executed instruction. (Count)
system.cpu0.exec_context.thread_0.statExecutedInstType::SimdShiftAcc            0      0.00%     87.43% # Class of executed instruction. (Count)
system.cpu0.exec_context.thread_0.statExecutedInstType::SimdDiv            0      0.00%     87.43% # Class of executed instruction. (Count)
system.cpu0.exec_context.thread_0.statExecutedInstType::SimdSqrt            0      0.00%     87.43% # Class of executed instruction. (Count)
system.cpu0.exec_context.thread_0.statExecutedInstType::SimdFloatAdd            0      0.00%     87.43% # Class of executed instruction. (Count)
system.cpu0.exec_context.thread_0.statExecutedInstType::SimdFloatAlu            0      0.00%     87.43% # Class of executed instruction. (Count)
system.cpu0.exec_context.thread_0.statExecutedInstType::SimdFloatCmp            0      0.00%     87.43% # Class of executed instruction. (Count)
system.cpu0.exec_context.thread_0.statExecutedInstType::SimdFloatCvt            0      0.00%     87.43% # Class of executed instruction. (Count)
system.cpu0.exec_context.thread_0.statExecutedInstType::SimdFloatDiv            0      0.00%     87.43% # Class of executed instruction. (Count)
system.cpu0.exec_context.thread_0.statExecutedInstType::SimdFloatMisc            0      0.00%     87.43% # Class of executed instruction. (Count)
system.cpu0.exec_context.thread_0.statExecutedInstType::SimdFloatMult            0      0.00%     87.43% # Class of executed instruction. (Count)
system.cpu0.exec_context.thread_0.statExecutedInstType::SimdFloatMultAcc            0      0.00%     87.43% # Class of executed instruction. (Count)
system.cpu0.exec_context.thread_0.statExecutedInstType::SimdFloatSqrt            0      0.00%     87.43% # Class of executed instruction. (Count)
system.cpu0.exec_context.thread_0.statExecutedInstType::SimdReduceAdd            0      0.00%     87.43% # Class of executed instruction. (Count)
system.cpu0.exec_context.thread_0.statExecutedInstType::SimdReduceAlu            0      0.00%     87.43% # Class of executed instruction. (Count)
system.cpu0.exec_context.thread_0.statExecutedInstType::SimdReduceCmp            0      0.00%     87.43% # Class of executed instruction. (Count)
system.cpu0.exec_context.thread_0.statExecutedInstType::SimdFloatReduceAdd            0      0.00%     87.43% # Class of executed instruction. (Count)
system.cpu0.exec_context.thread_0.statExecutedInstType::SimdFloatReduceCmp            0      0.00%     87.43% # Class of executed instruction. (Count)
system.cpu0.exec_context.thread_0.statExecutedInstType::SimdAes            0      0.00%     87.43% # Class of executed instruction. (Count)
system.cpu0.exec_context.thread_0.statExecutedInstType::SimdAesMix            0      0.00%     87.43% # Class of executed instruction. (Count)
system.cpu0.exec_context.thread_0.statExecutedInstType::SimdSha1Hash            0      0.00%     87.43% # Class of executed instruction. (Count)
system.cpu0.exec_context.thread_0.statExecutedInstType::SimdSha1Hash2            0      0.00%     87.43% # Class of executed instruction. (Count)
system.cpu0.exec_context.thread_0.statExecutedInstType::SimdSha256Hash            0      0.00%     87.43% # Class of executed instruction. (Count)
system.cpu0.exec_context.thread_0.statExecutedInstType::SimdSha256Hash2            0      0.00%     87.43% # Class of executed instruction. (Count)
system.cpu0.exec_context.thread_0.statExecutedInstType::SimdShaSigma2            0      0.00%     87.43% # Class of executed instruction. (Count)
system.cpu0.exec_context.thread_0.statExecutedInstType::SimdShaSigma3            0      0.00%     87.43% # Class of executed instruction. (Count)
system.cpu0.exec_context.thread_0.statExecutedInstType::SimdPredAlu            0      0.00%     87.43% # Class of executed instruction. (Count)
system.cpu0.exec_context.thread_0.statExecutedInstType::MemRead       371898      6.70%     94.13% # Class of executed instruction. (Count)
system.cpu0.exec_context.thread_0.statExecutedInstType::MemWrite       325905      5.87%    100.00% # Class of executed instruction. (Count)
system.cpu0.exec_context.thread_0.statExecutedInstType::FloatMemRead            0      0.00%    100.00% # Class of executed instruction. (Count)
system.cpu0.exec_context.thread_0.statExecutedInstType::FloatMemWrite            0      0.00%    100.00% # Class of executed instruction. (Count)
system.cpu0.exec_context.thread_0.statExecutedInstType::IprAccess            0      0.00%    100.00% # Class of executed instruction. (Count)
system.cpu0.exec_context.thread_0.statExecutedInstType::InstPrefetch            0      0.00%    100.00% # Class of executed instruction. (Count)
system.cpu0.exec_context.thread_0.statExecutedInstType::total      5552298                       # Class of executed instruction. (Count)
system.cpu0.mmu.alignFaults                         0                       # Number of MMU faults due to alignment restrictions (Count)
system.cpu0.mmu.prefetchFaults                      6                       # Number of MMU faults due to prefetch (Count)
system.cpu0.mmu.domainFaults                        0                       # Number of MMU faults due to domain restrictions (Count)
system.cpu0.mmu.permsFaults                         0                       # Number of MMU faults due to permissions restrictions (Count)
system.cpu0.mmu.dtb.readHits                   283141                       # Read hits (Count)
system.cpu0.mmu.dtb.readMisses                     84                       # Read misses (Count)
system.cpu0.mmu.dtb.writeHits                  325893                       # Write hits (Count)
system.cpu0.mmu.dtb.writeMisses                     9                       # Write misses (Count)
system.cpu0.mmu.dtb.inserts                        87                       # Number of times an entry is inserted into the TLB (Count)
system.cpu0.mmu.dtb.flushTlb                        0                       # Number of times complete TLB was flushed (Count)
system.cpu0.mmu.dtb.flushTlbMva                     0                       # Number of times TLB was flushed by MVA (Count)
system.cpu0.mmu.dtb.flushTlbMvaAsid               126                       # Number of times TLB was flushed by MVA & ASID (Count)
system.cpu0.mmu.dtb.flushTlbAsid                    6                       # Number of times TLB was flushed by ASID (Count)
system.cpu0.mmu.dtb.flushedEntries                  0                       # Number of entries that have been flushed from TLB (Count)
system.cpu0.mmu.dtb.readAccesses               283225                       # Read accesses (Count)
system.cpu0.mmu.dtb.writeAccesses              325902                       # Write accesses (Count)
system.cpu0.mmu.dtb.hits                       609034                       # Total TLB (inst and data) hits (Count)
system.cpu0.mmu.dtb.misses                         93                       # Total TLB (inst and data) misses (Count)
system.cpu0.mmu.dtb.accesses                   609127                       # Total TLB (inst and data) accesses (Count)
system.cpu0.mmu.dtb_walker.walks                   78                       # Table walker walks requested (Count)
system.cpu0.mmu.dtb_walker.walksLongDescriptor           78                       # Table walker walks initiated with long descriptors (Count)
system.cpu0.mmu.dtb_walker.walkWaitTime::samples           78                       # Table walker wait (enqueue to first request) latency (Tick)
system.cpu0.mmu.dtb_walker.walkWaitTime::0           78    100.00%    100.00% # Table walker wait (enqueue to first request) latency (Tick)
system.cpu0.mmu.dtb_walker.walkWaitTime::total           78                       # Table walker wait (enqueue to first request) latency (Tick)
system.cpu0.mmu.dtb_walker.pageSizes::4KiB           68     87.18%     87.18% # Table walker page sizes translated (Count)
system.cpu0.mmu.dtb_walker.pageSizes::2MiB           10     12.82%    100.00% # Table walker page sizes translated (Count)
system.cpu0.mmu.dtb_walker.pageSizes::total           78                       # Table walker page sizes translated (Count)
system.cpu0.mmu.dtb_walker.requestOrigin_Requested::Data           78                       # Table walker requests started/completed, data/inst (Count)
system.cpu0.mmu.dtb_walker.requestOrigin_Requested::Inst            0                       # Table walker requests started/completed, data/inst (Count)
system.cpu0.mmu.dtb_walker.requestOrigin_Requested::total           78                       # Table walker requests started/completed, data/inst (Count)
system.cpu0.mmu.dtb_walker.requestOrigin_Completed::Data           78                       # Table walker requests started/completed, data/inst (Count)
system.cpu0.mmu.dtb_walker.requestOrigin_Completed::Inst            0                       # Table walker requests started/completed, data/inst (Count)
system.cpu0.mmu.dtb_walker.requestOrigin_Completed::total           78                       # Table walker requests started/completed, data/inst (Count)
system.cpu0.mmu.dtb_walker.requestOrigin::total          156                       # Table walker requests started/completed, data/inst (Count)
system.cpu0.mmu.dtb_walker.power_state.pwrStateResidencyTicks::UNDEFINED 580025556000                       # Cumulative time (in ticks) in various power states (Tick)
system.cpu0.mmu.itb.instHits                  4820929                       # Inst hits (Count)
system.cpu0.mmu.itb.instMisses                    154                       # Inst misses (Count)
system.cpu0.mmu.itb.inserts                       154                       # Number of times an entry is inserted into the TLB (Count)
system.cpu0.mmu.itb.flushTlb                        0                       # Number of times complete TLB was flushed (Count)
system.cpu0.mmu.itb.flushTlbMva                     0                       # Number of times TLB was flushed by MVA (Count)
system.cpu0.mmu.itb.flushTlbMvaAsid               126                       # Number of times TLB was flushed by MVA & ASID (Count)
system.cpu0.mmu.itb.flushTlbAsid                    6                       # Number of times TLB was flushed by ASID (Count)
system.cpu0.mmu.itb.flushedEntries                  0                       # Number of entries that have been flushed from TLB (Count)
system.cpu0.mmu.itb.instAccesses              4821083                       # Inst accesses (Count)
system.cpu0.mmu.itb.hits                      4820929                       # Total TLB (inst and data) hits (Count)
system.cpu0.mmu.itb.misses                        154                       # Total TLB (inst and data) misses (Count)
system.cpu0.mmu.itb.accesses                  4821083                       # Total TLB (inst and data) accesses (Count)
system.cpu0.mmu.itb_walker.walks                  111                       # Table walker walks requested (Count)
system.cpu0.mmu.itb_walker.walksLongDescriptor          111                       # Table walker walks initiated with long descriptors (Count)
system.cpu0.mmu.itb_walker.walkWaitTime::samples          111                       # Table walker wait (enqueue to first request) latency (Tick)
system.cpu0.mmu.itb_walker.walkWaitTime::0          111    100.00%    100.00% # Table walker wait (enqueue to first request) latency (Tick)
system.cpu0.mmu.itb_walker.walkWaitTime::total          111                       # Table walker wait (enqueue to first request) latency (Tick)
system.cpu0.mmu.itb_walker.pageSizes::4KiB          109     98.20%     98.20% # Table walker page sizes translated (Count)
system.cpu0.mmu.itb_walker.pageSizes::2MiB            2      1.80%    100.00% # Table walker page sizes translated (Count)
system.cpu0.mmu.itb_walker.pageSizes::total          111                       # Table walker page sizes translated (Count)
system.cpu0.mmu.itb_walker.requestOrigin_Requested::Data            0                       # Table walker requests started/completed, data/inst (Count)
system.cpu0.mmu.itb_walker.requestOrigin_Requested::Inst          111                       # Table walker requests started/completed, data/inst (Count)
system.cpu0.mmu.itb_walker.requestOrigin_Requested::total          111                       # Table walker requests started/completed, data/inst (Count)
system.cpu0.mmu.itb_walker.requestOrigin_Completed::Data            0                       # Table walker requests started/completed, data/inst (Count)
system.cpu0.mmu.itb_walker.requestOrigin_Completed::Inst          111                       # Table walker requests started/completed, data/inst (Count)
system.cpu0.mmu.itb_walker.requestOrigin_Completed::total          111                       # Table walker requests started/completed, data/inst (Count)
system.cpu0.mmu.itb_walker.requestOrigin::total          222                       # Table walker requests started/completed, data/inst (Count)
system.cpu0.mmu.itb_walker.power_state.pwrStateResidencyTicks::UNDEFINED 580025556000                       # Cumulative time (in ticks) in various power states (Tick)
system.cpu0.mmu.l2_shared.partialHits             173                       # partial translation hits (Count)
system.cpu0.mmu.l2_shared.instHits                149                       # Inst hits (Count)
system.cpu0.mmu.l2_shared.instMisses                5                       # Inst misses (Count)
system.cpu0.mmu.l2_shared.readHits                 69                       # Read hits (Count)
system.cpu0.mmu.l2_shared.readMisses               15                       # Read misses (Count)
system.cpu0.mmu.l2_shared.writeHits                 7                       # Write hits (Count)
system.cpu0.mmu.l2_shared.writeMisses               2                       # Write misses (Count)
system.cpu0.mmu.l2_shared.inserts                 196                       # Number of times an entry is inserted into the TLB (Count)
system.cpu0.mmu.l2_shared.flushTlb                  0                       # Number of times complete TLB was flushed (Count)
system.cpu0.mmu.l2_shared.flushTlbMva               0                       # Number of times TLB was flushed by MVA (Count)
system.cpu0.mmu.l2_shared.flushTlbMvaAsid          126                       # Number of times TLB was flushed by MVA & ASID (Count)
system.cpu0.mmu.l2_shared.flushTlbAsid              6                       # Number of times TLB was flushed by ASID (Count)
system.cpu0.mmu.l2_shared.flushedEntries            2                       # Number of entries that have been flushed from TLB (Count)
system.cpu0.mmu.l2_shared.readAccesses             84                       # Read accesses (Count)
system.cpu0.mmu.l2_shared.writeAccesses             9                       # Write accesses (Count)
system.cpu0.mmu.l2_shared.instAccesses            154                       # Inst accesses (Count)
system.cpu0.mmu.l2_shared.hits                    225                       # Total TLB (inst and data) hits (Count)
system.cpu0.mmu.l2_shared.misses                   22                       # Total TLB (inst and data) misses (Count)
system.cpu0.mmu.l2_shared.accesses                247                       # Total TLB (inst and data) accesses (Count)
system.cpu0.mmu.stage2_dtb.readHits                 0                       # Read hits (Count)
system.cpu0.mmu.stage2_dtb.readMisses               0                       # Read misses (Count)
system.cpu0.mmu.stage2_dtb.writeHits                0                       # Write hits (Count)
system.cpu0.mmu.stage2_dtb.writeMisses              0                       # Write misses (Count)
system.cpu0.mmu.stage2_dtb.inserts                  0                       # Number of times an entry is inserted into the TLB (Count)
system.cpu0.mmu.stage2_dtb.flushTlb                 0                       # Number of times complete TLB was flushed (Count)
system.cpu0.mmu.stage2_dtb.flushTlbMva              0                       # Number of times TLB was flushed by MVA (Count)
system.cpu0.mmu.stage2_dtb.flushTlbMvaAsid            0                       # Number of times TLB was flushed by MVA & ASID (Count)
system.cpu0.mmu.stage2_dtb.flushTlbAsid             0                       # Number of times TLB was flushed by ASID (Count)
system.cpu0.mmu.stage2_dtb.flushedEntries            0                       # Number of entries that have been flushed from TLB (Count)
system.cpu0.mmu.stage2_dtb.readAccesses             0                       # Read accesses (Count)
system.cpu0.mmu.stage2_dtb.writeAccesses            0                       # Write accesses (Count)
system.cpu0.mmu.stage2_dtb.hits                     0                       # Total TLB (inst and data) hits (Count)
system.cpu0.mmu.stage2_dtb.misses                   0                       # Total TLB (inst and data) misses (Count)
system.cpu0.mmu.stage2_dtb.accesses                 0                       # Total TLB (inst and data) accesses (Count)
system.cpu0.mmu.stage2_dtb_walker.walks             0                       # Table walker walks requested (Count)
system.cpu0.mmu.stage2_dtb_walker.requestOrigin_Requested::Data            0                       # Table walker requests started/completed, data/inst (Count)
system.cpu0.mmu.stage2_dtb_walker.requestOrigin_Requested::Inst            0                       # Table walker requests started/completed, data/inst (Count)
system.cpu0.mmu.stage2_dtb_walker.requestOrigin_Requested::total            0                       # Table walker requests started/completed, data/inst (Count)
system.cpu0.mmu.stage2_dtb_walker.requestOrigin_Completed::Data            0                       # Table walker requests started/completed, data/inst (Count)
system.cpu0.mmu.stage2_dtb_walker.requestOrigin_Completed::Inst            0                       # Table walker requests started/completed, data/inst (Count)
system.cpu0.mmu.stage2_dtb_walker.requestOrigin_Completed::total            0                       # Table walker requests started/completed, data/inst (Count)
system.cpu0.mmu.stage2_dtb_walker.requestOrigin::total            0                       # Table walker requests started/completed, data/inst (Count)
system.cpu0.mmu.stage2_dtb_walker.power_state.pwrStateResidencyTicks::UNDEFINED 580025556000                       # Cumulative time (in ticks) in various power states (Tick)
system.cpu0.mmu.stage2_itb.instHits                 0                       # Inst hits (Count)
system.cpu0.mmu.stage2_itb.instMisses               0                       # Inst misses (Count)
system.cpu0.mmu.stage2_itb.inserts                  0                       # Number of times an entry is inserted into the TLB (Count)
system.cpu0.mmu.stage2_itb.flushTlb                 0                       # Number of times complete TLB was flushed (Count)
system.cpu0.mmu.stage2_itb.flushTlbMva              0                       # Number of times TLB was flushed by MVA (Count)
system.cpu0.mmu.stage2_itb.flushTlbMvaAsid            0                       # Number of times TLB was flushed by MVA & ASID (Count)
system.cpu0.mmu.stage2_itb.flushTlbAsid             0                       # Number of times TLB was flushed by ASID (Count)
system.cpu0.mmu.stage2_itb.flushedEntries            0                       # Number of entries that have been flushed from TLB (Count)
system.cpu0.mmu.stage2_itb.instAccesses             0                       # Inst accesses (Count)
system.cpu0.mmu.stage2_itb.hits                     0                       # Total TLB (inst and data) hits (Count)
system.cpu0.mmu.stage2_itb.misses                   0                       # Total TLB (inst and data) misses (Count)
system.cpu0.mmu.stage2_itb.accesses                 0                       # Total TLB (inst and data) accesses (Count)
system.cpu0.mmu.stage2_itb_walker.walks             0                       # Table walker walks requested (Count)
system.cpu0.mmu.stage2_itb_walker.requestOrigin_Requested::Data            0                       # Table walker requests started/completed, data/inst (Count)
system.cpu0.mmu.stage2_itb_walker.requestOrigin_Requested::Inst            0                       # Table walker requests started/completed, data/inst (Count)
system.cpu0.mmu.stage2_itb_walker.requestOrigin_Requested::total            0                       # Table walker requests started/completed, data/inst (Count)
system.cpu0.mmu.stage2_itb_walker.requestOrigin_Completed::Data            0                       # Table walker requests started/completed, data/inst (Count)
system.cpu0.mmu.stage2_itb_walker.requestOrigin_Completed::Inst            0                       # Table walker requests started/completed, data/inst (Count)
system.cpu0.mmu.stage2_itb_walker.requestOrigin_Completed::total            0                       # Table walker requests started/completed, data/inst (Count)
system.cpu0.mmu.stage2_itb_walker.requestOrigin::total            0                       # Table walker requests started/completed, data/inst (Count)
system.cpu0.mmu.stage2_itb_walker.power_state.pwrStateResidencyTicks::UNDEFINED 580025556000                       # Cumulative time (in ticks) in various power states (Tick)
system.cpu0.power_state.numTransitions             34                       # Number of power state transitions (Count)
system.cpu0.power_state.ticksClkGated::samples           18                       # Distribution of time spent in the clock gated state (Tick)
system.cpu0.power_state.ticksClkGated::mean 73753564.388889                       # Distribution of time spent in the clock gated state (Tick)
system.cpu0.power_state.ticksClkGated::stdev 56538184.777708                       # Distribution of time spent in the clock gated state (Tick)
system.cpu0.power_state.ticksClkGated::1000-5e+10           18    100.00%    100.00% # Distribution of time spent in the clock gated state (Tick)
system.cpu0.power_state.ticksClkGated::min_value      7288557                       # Distribution of time spent in the clock gated state (Tick)
system.cpu0.power_state.ticksClkGated::max_value    162416156                       # Distribution of time spent in the clock gated state (Tick)
system.cpu0.power_state.ticksClkGated::total           18                       # Distribution of time spent in the clock gated state (Tick)
system.cpu0.power_state.pwrStateResidencyTicks::ON   2776144841                       # Cumulative time (in ticks) in various power states (Tick)
system.cpu0.power_state.pwrStateResidencyTicks::CLK_GATED   1327564159                       # Cumulative time (in ticks) in various power states (Tick)
system.cpu0.thread_0.numInsts                       0                       # Number of Instructions committed (Count)
system.cpu0.thread_0.numOps                         0                       # Number of Ops committed (Count)
system.cpu0.thread_0.numMemRefs                     0                       # Number of Memory References (Count)
system.cpu1.numCycles                         8137943                       # Number of cpu cycles simulated (Cycle)
system.cpu1.numWorkItemsStarted                     0                       # Number of work items this cpu started (Count)
system.cpu1.numWorkItemsCompleted                   0                       # Number of work items this cpu completed (Count)
system.cpu1.exec_context.thread_0.numInsts      4799330                       # Number of instructions committed (Count)
system.cpu1.exec_context.thread_0.numOps      5523790                       # Number of ops (including micro ops) committed (Count)
system.cpu1.exec_context.thread_0.numIntAluAccesses      4895291                       # Number of integer alu accesses (Count)
system.cpu1.exec_context.thread_0.numFpAluAccesses            0                       # Number of float alu accesses (Count)
system.cpu1.exec_context.thread_0.numVecAluAccesses           96                       # Number of vector alu accesses (Count)
system.cpu1.exec_context.thread_0.numCallsReturns       272156                       # Number of times a function call or return occured (Count)
system.cpu1.exec_context.thread_0.numCondCtrlInsts       677468                       # Number of instructions that are conditional controls (Count)
system.cpu1.exec_context.thread_0.numIntInsts      4895291                       # Number of integer instructions (Count)
system.cpu1.exec_context.thread_0.numFpInsts            0                       # Number of float instructions (Count)
system.cpu1.exec_context.thread_0.numVecInsts           96                       # Number of vector instructions (Count)
system.cpu1.exec_context.thread_0.numIntRegReads      6902334                       # Number of times the integer registers were read (Count)
system.cpu1.exec_context.thread_0.numIntRegWrites      3807311                       # Number of times the integer registers were written (Count)
system.cpu1.exec_context.thread_0.numFpRegReads            0                       # Number of times the floating registers were read (Count)
system.cpu1.exec_context.thread_0.numFpRegWrites            0                       # Number of times the floating registers were written (Count)
system.cpu1.exec_context.thread_0.numVecRegReads           64                       # Number of times the vector registers were read (Count)
system.cpu1.exec_context.thread_0.numVecRegWrites           32                       # Number of times the vector registers were written (Count)
system.cpu1.exec_context.thread_0.numVecPredRegReads            0                       # Number of times the predicate registers were read (Count)
system.cpu1.exec_context.thread_0.numVecPredRegWrites            0                       # Number of times the predicate registers were written (Count)
system.cpu1.exec_context.thread_0.numCCRegReads     16482738                       # Number of times the CC registers were read (Count)
system.cpu1.exec_context.thread_0.numCCRegWrites      3609864                       # Number of times the CC registers were written (Count)
system.cpu1.exec_context.thread_0.numMiscRegReads       680804                       # Number of times the Misc registers were read (Count)
system.cpu1.exec_context.thread_0.numMiscRegWrites          348                       # Number of times the Misc registers were written (Count)
system.cpu1.exec_context.thread_0.numMemRefs       686209                       # Number of memory refs (Count)
system.cpu1.exec_context.thread_0.numLoadInsts       365429                       # Number of load instructions (Count)
system.cpu1.exec_context.thread_0.numStoreInsts       320780                       # Number of store instructions (Count)
system.cpu1.exec_context.thread_0.numIdleCycles 2561063.134122                       # Number of idle cycles (Cycle)
system.cpu1.exec_context.thread_0.numBusyCycles 5576879.865878                       # Number of busy cycles (Cycle)
system.cpu1.exec_context.thread_0.notIdleFraction     0.685294                       # Percentage of non-idle cycles (Ratio)
system.cpu1.exec_context.thread_0.idleFraction     0.314706                       # Percentage of idle cycles (Ratio)
system.cpu1.exec_context.thread_0.numBranches       901967                       # Number of branches fetched (Count)
system.cpu1.exec_context.thread_0.statExecutedInstType::No_OpClass            1      0.00%      0.00% # Class of executed instruction. (Count)
system.cpu1.exec_context.thread_0.statExecutedInstType::IntAlu      4668196     84.51%     84.51% # Class of executed instruction. (Count)
system.cpu1.exec_context.thread_0.statExecutedInstType::IntMult       169347      3.07%     87.58% # Class of executed instruction. (Count)
system.cpu1.exec_context.thread_0.statExecutedInstType::IntDiv           39      0.00%     87.58% # Class of executed instruction. (Count)
system.cpu1.exec_context.thread_0.statExecutedInstType::FloatAdd            0      0.00%     87.58% # Class of executed instruction. (Count)
system.cpu1.exec_context.thread_0.statExecutedInstType::FloatCmp            0      0.00%     87.58% # Class of executed instruction. (Count)
system.cpu1.exec_context.thread_0.statExecutedInstType::FloatCvt            0      0.00%     87.58% # Class of executed instruction. (Count)
system.cpu1.exec_context.thread_0.statExecutedInstType::FloatMult            0      0.00%     87.58% # Class of executed instruction. (Count)
system.cpu1.exec_context.thread_0.statExecutedInstType::FloatMultAcc            0      0.00%     87.58% # Class of executed instruction. (Count)
system.cpu1.exec_context.thread_0.statExecutedInstType::FloatDiv            0      0.00%     87.58% # Class of executed instruction. (Count)
system.cpu1.exec_context.thread_0.statExecutedInstType::FloatMisc            0      0.00%     87.58% # Class of executed instruction. (Count)
system.cpu1.exec_context.thread_0.statExecutedInstType::FloatSqrt            0      0.00%     87.58% # Class of executed instruction. (Count)
system.cpu1.exec_context.thread_0.statExecutedInstType::SimdAdd            0      0.00%     87.58% # Class of executed instruction. (Count)
system.cpu1.exec_context.thread_0.statExecutedInstType::SimdAddAcc            0      0.00%     87.58% # Class of executed instruction. (Count)
system.cpu1.exec_context.thread_0.statExecutedInstType::SimdAlu            0      0.00%     87.58% # Class of executed instruction. (Count)
system.cpu1.exec_context.thread_0.statExecutedInstType::SimdCmp            0      0.00%     87.58% # Class of executed instruction. (Count)
system.cpu1.exec_context.thread_0.statExecutedInstType::SimdCvt            0      0.00%     87.58% # Class of executed instruction. (Count)
system.cpu1.exec_context.thread_0.statExecutedInstType::SimdMisc            0      0.00%     87.58% # Class of executed instruction. (Count)
system.cpu1.exec_context.thread_0.statExecutedInstType::SimdMult            0      0.00%     87.58% # Class of executed instruction. (Count)
system.cpu1.exec_context.thread_0.statExecutedInstType::SimdMultAcc            0      0.00%     87.58% # Class of executed instruction. (Count)
system.cpu1.exec_context.thread_0.statExecutedInstType::SimdShift            0      0.00%     87.58% # Class of executed instruction. (Count)
system.cpu1.exec_context.thread_0.statExecutedInstType::SimdShiftAcc            0      0.00%     87.58% # Class of executed instruction. (Count)
system.cpu1.exec_context.thread_0.statExecutedInstType::SimdDiv            0      0.00%     87.58% # Class of executed instruction. (Count)
system.cpu1.exec_context.thread_0.statExecutedInstType::SimdSqrt            0      0.00%     87.58% # Class of executed instruction. (Count)
system.cpu1.exec_context.thread_0.statExecutedInstType::SimdFloatAdd            0      0.00%     87.58% # Class of executed instruction. (Count)
system.cpu1.exec_context.thread_0.statExecutedInstType::SimdFloatAlu            0      0.00%     87.58% # Class of executed instruction. (Count)
system.cpu1.exec_context.thread_0.statExecutedInstType::SimdFloatCmp            0      0.00%     87.58% # Class of executed instruction. (Count)
system.cpu1.exec_context.thread_0.statExecutedInstType::SimdFloatCvt            0      0.00%     87.58% # Class of executed instruction. (Count)
system.cpu1.exec_context.thread_0.statExecutedInstType::SimdFloatDiv            0      0.00%     87.58% # Class of executed instruction. (Count)
system.cpu1.exec_context.thread_0.statExecutedInstType::SimdFloatMisc            0      0.00%     87.58% # Class of executed instruction. (Count)
system.cpu1.exec_context.thread_0.statExecutedInstType::SimdFloatMult            0      0.00%     87.58% # Class of executed instruction. (Count)
system.cpu1.exec_context.thread_0.statExecutedInstType::SimdFloatMultAcc            0      0.00%     87.58% # Class of executed instruction. (Count)
system.cpu1.exec_context.thread_0.statExecutedInstType::SimdFloatSqrt            0      0.00%     87.58% # Class of executed instruction. (Count)
system.cpu1.exec_context.thread_0.statExecutedInstType::SimdReduceAdd            0      0.00%     87.58% # Class of executed instruction. (Count)
system.cpu1.exec_context.thread_0.statExecutedInstType::SimdReduceAlu            0      0.00%     87.58% # Class of executed instruction. (Count)
system.cpu1.exec_context.thread_0.statExecutedInstType::SimdReduceCmp            0      0.00%     87.58% # Class of executed instruction. (Count)
system.cpu1.exec_context.thread_0.statExecutedInstType::SimdFloatReduceAdd            0      0.00%     87.58% # Class of executed instruction. (Count)
system.cpu1.exec_context.thread_0.statExecutedInstType::SimdFloatReduceCmp            0      0.00%     87.58% # Class of executed instruction. (Count)
system.cpu1.exec_context.thread_0.statExecutedInstType::SimdAes            0      0.00%     87.58% # Class of executed instruction. (Count)
system.cpu1.exec_context.thread_0.statExecutedInstType::SimdAesMix            0      0.00%     87.58% # Class of executed instruction. (Count)
system.cpu1.exec_context.thread_0.statExecutedInstType::SimdSha1Hash            0      0.00%     87.58% # Class of executed instruction. (Count)
system.cpu1.exec_context.thread_0.statExecutedInstType::SimdSha1Hash2            0      0.00%     87.58% # Class of executed instruction. (Count)
system.cpu1.exec_context.thread_0.statExecutedInstType::SimdSha256Hash            0      0.00%     87.58% # Class of executed instruction. (Count)
system.cpu1.exec_context.thread_0.statExecutedInstType::SimdSha256Hash2            0      0.00%     87.58% # Class of executed instruction. (Count)
system.cpu1.exec_context.thread_0.statExecutedInstType::SimdShaSigma2            0      0.00%     87.58% # Class of executed instruction. (Count)
system.cpu1.exec_context.thread_0.statExecutedInstType::SimdShaSigma3            0      0.00%     87.58% # Class of executed instruction. (Count)
system.cpu1.exec_context.thread_0.statExecutedInstType::SimdPredAlu            0      0.00%     87.58% # Class of executed instruction. (Count)
system.cpu1.exec_context.thread_0.statExecutedInstType::MemRead       365429      6.62%     94.19% # Class of executed instruction. (Count)
system.cpu1.exec_context.thread_0.statExecutedInstType::MemWrite       320780      5.81%    100.00% # Class of executed instruction. (Count)
system.cpu1.exec_context.thread_0.statExecutedInstType::FloatMemRead            0      0.00%    100.00% # Class of executed instruction. (Count)
system.cpu1.exec_context.thread_0.statExecutedInstType::FloatMemWrite            0      0.00%    100.00% # Class of executed instruction. (Count)
system.cpu1.exec_context.thread_0.statExecutedInstType::IprAccess            0      0.00%    100.00% # Class of executed instruction. (Count)
system.cpu1.exec_context.thread_0.statExecutedInstType::InstPrefetch            0      0.00%    100.00% # Class of executed instruction. (Count)
system.cpu1.exec_context.thread_0.statExecutedInstType::total      5523792                       # Class of executed instruction. (Count)
system.cpu1.mmu.alignFaults                         0                       # Number of MMU faults due to alignment restrictions (Count)
system.cpu1.mmu.prefetchFaults                      5                       # Number of MMU faults due to prefetch (Count)
system.cpu1.mmu.domainFaults                        0                       # Number of MMU faults due to domain restrictions (Count)
system.cpu1.mmu.permsFaults                         0                       # Number of MMU faults due to permissions restrictions (Count)
system.cpu1.mmu.dtb.readHits                   276663                       # Read hits (Count)
system.cpu1.mmu.dtb.readMisses                     69                       # Read misses (Count)
system.cpu1.mmu.dtb.writeHits                  320767                       # Write hits (Count)
system.cpu1.mmu.dtb.writeMisses                    10                       # Write misses (Count)
system.cpu1.mmu.dtb.inserts                        74                       # Number of times an entry is inserted into the TLB (Count)
system.cpu1.mmu.dtb.flushTlb                        0                       # Number of times complete TLB was flushed (Count)
system.cpu1.mmu.dtb.flushTlbMva                     0                       # Number of times TLB was flushed by MVA (Count)
system.cpu1.mmu.dtb.flushTlbMvaAsid               126                       # Number of times TLB was flushed by MVA & ASID (Count)
system.cpu1.mmu.dtb.flushTlbAsid                    6                       # Number of times TLB was flushed by ASID (Count)
system.cpu1.mmu.dtb.flushedEntries                  0                       # Number of entries that have been flushed from TLB (Count)
system.cpu1.mmu.dtb.readAccesses               276732                       # Read accesses (Count)
system.cpu1.mmu.dtb.writeAccesses              320777                       # Write accesses (Count)
system.cpu1.mmu.dtb.hits                       597430                       # Total TLB (inst and data) hits (Count)
system.cpu1.mmu.dtb.misses                         79                       # Total TLB (inst and data) misses (Count)
system.cpu1.mmu.dtb.accesses                   597509                       # Total TLB (inst and data) accesses (Count)
system.cpu1.mmu.dtb_walker.walks                   70                       # Table walker walks requested (Count)
system.cpu1.mmu.dtb_walker.walksLongDescriptor           70                       # Table walker walks initiated with long descriptors (Count)
system.cpu1.mmu.dtb_walker.walkWaitTime::samples           70                       # Table walker wait (enqueue to first request) latency (Tick)
system.cpu1.mmu.dtb_walker.walkWaitTime::0           70    100.00%    100.00% # Table walker wait (enqueue to first request) latency (Tick)
system.cpu1.mmu.dtb_walker.walkWaitTime::total           70                       # Table walker wait (enqueue to first request) latency (Tick)
system.cpu1.mmu.dtb_walker.pageSizes::4KiB           62     88.57%     88.57% # Table walker page sizes translated (Count)
system.cpu1.mmu.dtb_walker.pageSizes::2MiB            8     11.43%    100.00% # Table walker page sizes translated (Count)
system.cpu1.mmu.dtb_walker.pageSizes::total           70                       # Table walker page sizes translated (Count)
system.cpu1.mmu.dtb_walker.requestOrigin_Requested::Data           70                       # Table walker requests started/completed, data/inst (Count)
system.cpu1.mmu.dtb_walker.requestOrigin_Requested::Inst            0                       # Table walker requests started/completed, data/inst (Count)
system.cpu1.mmu.dtb_walker.requestOrigin_Requested::total           70                       # Table walker requests started/completed, data/inst (Count)
system.cpu1.mmu.dtb_walker.requestOrigin_Completed::Data           70                       # Table walker requests started/completed, data/inst (Count)
system.cpu1.mmu.dtb_walker.requestOrigin_Completed::Inst            0                       # Table walker requests started/completed, data/inst (Count)
system.cpu1.mmu.dtb_walker.requestOrigin_Completed::total           70                       # Table walker requests started/completed, data/inst (Count)
system.cpu1.mmu.dtb_walker.requestOrigin::total          140                       # Table walker requests started/completed, data/inst (Count)
system.cpu1.mmu.dtb_walker.power_state.pwrStateResidencyTicks::UNDEFINED 580025556000                       # Cumulative time (in ticks) in various power states (Tick)
system.cpu1.mmu.itb.instHits                  4799214                       # Inst hits (Count)
system.cpu1.mmu.itb.instMisses                    118                       # Inst misses (Count)
system.cpu1.mmu.itb.inserts                       118                       # Number of times an entry is inserted into the TLB (Count)
system.cpu1.mmu.itb.flushTlb                        0                       # Number of times complete TLB was flushed (Count)
system.cpu1.mmu.itb.flushTlbMva                     0                       # Number of times TLB was flushed by MVA (Count)
system.cpu1.mmu.itb.flushTlbMvaAsid               126                       # Number of times TLB was flushed by MVA & ASID (Count)
system.cpu1.mmu.itb.flushTlbAsid                    6                       # Number of times TLB was flushed by ASID (Count)
system.cpu1.mmu.itb.flushedEntries                  0                       # Number of entries that have been flushed from TLB (Count)
system.cpu1.mmu.itb.instAccesses              4799332                       # Inst accesses (Count)
system.cpu1.mmu.itb.hits                      4799214                       # Total TLB (inst and data) hits (Count)
system.cpu1.mmu.itb.misses                        118                       # Total TLB (inst and data) misses (Count)
system.cpu1.mmu.itb.accesses                  4799332                       # Total TLB (inst and data) accesses (Count)
system.cpu1.mmu.itb_walker.walks                   94                       # Table walker walks requested (Count)
system.cpu1.mmu.itb_walker.walksLongDescriptor           94                       # Table walker walks initiated with long descriptors (Count)
system.cpu1.mmu.itb_walker.walkWaitTime::samples           94                       # Table walker wait (enqueue to first request) latency (Tick)
system.cpu1.mmu.itb_walker.walkWaitTime::0           94    100.00%    100.00% # Table walker wait (enqueue to first request) latency (Tick)
system.cpu1.mmu.itb_walker.walkWaitTime::total           94                       # Table walker wait (enqueue to first request) latency (Tick)
system.cpu1.mmu.itb_walker.pageSizes::4KiB           92     97.87%     97.87% # Table walker page sizes translated (Count)
system.cpu1.mmu.itb_walker.pageSizes::2MiB            2      2.13%    100.00% # Table walker page sizes translated (Count)
system.cpu1.mmu.itb_walker.pageSizes::total           94                       # Table walker page sizes translated (Count)
system.cpu1.mmu.itb_walker.requestOrigin_Requested::Data            0                       # Table walker requests started/completed, data/inst (Count)
system.cpu1.mmu.itb_walker.requestOrigin_Requested::Inst           94                       # Table walker requests started/completed, data/inst (Count)
system.cpu1.mmu.itb_walker.requestOrigin_Requested::total           94                       # Table walker requests started/completed, data/inst (Count)
system.cpu1.mmu.itb_walker.requestOrigin_Completed::Data            0                       # Table walker requests started/completed, data/inst (Count)
system.cpu1.mmu.itb_walker.requestOrigin_Completed::Inst           94                       # Table walker requests started/completed, data/inst (Count)
system.cpu1.mmu.itb_walker.requestOrigin_Completed::total           94                       # Table walker requests started/completed, data/inst (Count)
system.cpu1.mmu.itb_walker.requestOrigin::total          188                       # Table walker requests started/completed, data/inst (Count)
system.cpu1.mmu.itb_walker.power_state.pwrStateResidencyTicks::UNDEFINED 580025556000                       # Cumulative time (in ticks) in various power states (Tick)
system.cpu1.mmu.l2_shared.partialHits             149                       # partial translation hits (Count)
system.cpu1.mmu.l2_shared.instHits                112                       # Inst hits (Count)
system.cpu1.mmu.l2_shared.instMisses                6                       # Inst misses (Count)
system.cpu1.mmu.l2_shared.readHits                 57                       # Read hits (Count)
system.cpu1.mmu.l2_shared.readMisses               12                       # Read misses (Count)
system.cpu1.mmu.l2_shared.writeHits                 8                       # Write hits (Count)
system.cpu1.mmu.l2_shared.writeMisses               2                       # Write misses (Count)
system.cpu1.mmu.l2_shared.inserts                 172                       # Number of times an entry is inserted into the TLB (Count)
system.cpu1.mmu.l2_shared.flushTlb                  0                       # Number of times complete TLB was flushed (Count)
system.cpu1.mmu.l2_shared.flushTlbMva               0                       # Number of times TLB was flushed by MVA (Count)
system.cpu1.mmu.l2_shared.flushTlbMvaAsid          126                       # Number of times TLB was flushed by MVA & ASID (Count)
system.cpu1.mmu.l2_shared.flushTlbAsid              6                       # Number of times TLB was flushed by ASID (Count)
system.cpu1.mmu.l2_shared.flushedEntries            2                       # Number of entries that have been flushed from TLB (Count)
system.cpu1.mmu.l2_shared.readAccesses             69                       # Read accesses (Count)
system.cpu1.mmu.l2_shared.writeAccesses            10                       # Write accesses (Count)
system.cpu1.mmu.l2_shared.instAccesses            118                       # Inst accesses (Count)
system.cpu1.mmu.l2_shared.hits                    177                       # Total TLB (inst and data) hits (Count)
system.cpu1.mmu.l2_shared.misses                   20                       # Total TLB (inst and data) misses (Count)
system.cpu1.mmu.l2_shared.accesses                197                       # Total TLB (inst and data) accesses (Count)
system.cpu1.mmu.stage2_dtb.readHits                 0                       # Read hits (Count)
system.cpu1.mmu.stage2_dtb.readMisses               0                       # Read misses (Count)
system.cpu1.mmu.stage2_dtb.writeHits                0                       # Write hits (Count)
system.cpu1.mmu.stage2_dtb.writeMisses              0                       # Write misses (Count)
system.cpu1.mmu.stage2_dtb.inserts                  0                       # Number of times an entry is inserted into the TLB (Count)
system.cpu1.mmu.stage2_dtb.flushTlb                 0                       # Number of times complete TLB was flushed (Count)
system.cpu1.mmu.stage2_dtb.flushTlbMva              0                       # Number of times TLB was flushed by MVA (Count)
system.cpu1.mmu.stage2_dtb.flushTlbMvaAsid            0                       # Number of times TLB was flushed by MVA & ASID (Count)
system.cpu1.mmu.stage2_dtb.flushTlbAsid             0                       # Number of times TLB was flushed by ASID (Count)
system.cpu1.mmu.stage2_dtb.flushedEntries            0                       # Number of entries that have been flushed from TLB (Count)
system.cpu1.mmu.stage2_dtb.readAccesses             0                       # Read accesses (Count)
system.cpu1.mmu.stage2_dtb.writeAccesses            0                       # Write accesses (Count)
system.cpu1.mmu.stage2_dtb.hits                     0                       # Total TLB (inst and data) hits (Count)
system.cpu1.mmu.stage2_dtb.misses                   0                       # Total TLB (inst and data) misses (Count)
system.cpu1.mmu.stage2_dtb.accesses                 0                       # Total TLB (inst and data) accesses (Count)
system.cpu1.mmu.stage2_dtb_walker.walks             0                       # Table walker walks requested (Count)
system.cpu1.mmu.stage2_dtb_walker.requestOrigin_Requested::Data            0                       # Table walker requests started/completed, data/inst (Count)
system.cpu1.mmu.stage2_dtb_walker.requestOrigin_Requested::Inst            0                       # Table walker requests started/completed, data/inst (Count)
system.cpu1.mmu.stage2_dtb_walker.requestOrigin_Requested::total            0                       # Table walker requests started/completed, data/inst (Count)
system.cpu1.mmu.stage2_dtb_walker.requestOrigin_Completed::Data            0                       # Table walker requests started/completed, data/inst (Count)
system.cpu1.mmu.stage2_dtb_walker.requestOrigin_Completed::Inst            0                       # Table walker requests started/completed, data/inst (Count)
system.cpu1.mmu.stage2_dtb_walker.requestOrigin_Completed::total            0                       # Table walker requests started/completed, data/inst (Count)
system.cpu1.mmu.stage2_dtb_walker.requestOrigin::total            0                       # Table walker requests started/completed, data/inst (Count)
system.cpu1.mmu.stage2_dtb_walker.power_state.pwrStateResidencyTicks::UNDEFINED 580025556000                       # Cumulative time (in ticks) in various power states (Tick)
system.cpu1.mmu.stage2_itb.instHits                 0                       # Inst hits (Count)
system.cpu1.mmu.stage2_itb.instMisses               0                       # Inst misses (Count)
system.cpu1.mmu.stage2_itb.inserts                  0                       # Number of times an entry is inserted into the TLB (Count)
system.cpu1.mmu.stage2_itb.flushTlb                 0                       # Number of times complete TLB was flushed (Count)
system.cpu1.mmu.stage2_itb.flushTlbMva              0                       # Number of times TLB was flushed by MVA (Count)
system.cpu1.mmu.stage2_itb.flushTlbMvaAsid            0                       # Number of times TLB was flushed by MVA & ASID (Count)
system.cpu1.mmu.stage2_itb.flushTlbAsid             0                       # Number of times TLB was flushed by ASID (Count)
system.cpu1.mmu.stage2_itb.flushedEntries            0                       # Number of entries that have been flushed from TLB (Count)
system.cpu1.mmu.stage2_itb.instAccesses             0                       # Inst accesses (Count)
system.cpu1.mmu.stage2_itb.hits                     0                       # Total TLB (inst and data) hits (Count)
system.cpu1.mmu.stage2_itb.misses                   0                       # Total TLB (inst and data) misses (Count)
system.cpu1.mmu.stage2_itb.accesses                 0                       # Total TLB (inst and data) accesses (Count)
system.cpu1.mmu.stage2_itb_walker.walks             0                       # Table walker walks requested (Count)
system.cpu1.mmu.stage2_itb_walker.requestOrigin_Requested::Data            0                       # Table walker requests started/completed, data/inst (Count)
system.cpu1.mmu.stage2_itb_walker.requestOrigin_Requested::Inst            0                       # Table walker requests started/completed, data/inst (Count)
system.cpu1.mmu.stage2_itb_walker.requestOrigin_Requested::total            0                       # Table walker requests started/completed, data/inst (Count)
system.cpu1.mmu.stage2_itb_walker.requestOrigin_Completed::Data            0                       # Table walker requests started/completed, data/inst (Count)
system.cpu1.mmu.stage2_itb_walker.requestOrigin_Completed::Inst            0                       # Table walker requests started/completed, data/inst (Count)
system.cpu1.mmu.stage2_itb_walker.requestOrigin_Completed::total            0                       # Table walker requests started/completed, data/inst (Count)
system.cpu1.mmu.stage2_itb_walker.requestOrigin::total            0                       # Table walker requests started/completed, data/inst (Count)
system.cpu1.mmu.stage2_itb_walker.power_state.pwrStateResidencyTicks::UNDEFINED 580025556000                       # Cumulative time (in ticks) in various power states (Tick)
system.cpu1.power_state.numTransitions             20                       # Number of power state transitions (Count)
system.cpu1.power_state.ticksClkGated::samples           11                       # Distribution of time spent in the clock gated state (Tick)
system.cpu1.power_state.ticksClkGated::mean 121983269.818182                       # Distribution of time spent in the clock gated state (Tick)
system.cpu1.power_state.ticksClkGated::stdev 56488748.654163                       # Distribution of time spent in the clock gated state (Tick)
system.cpu1.power_state.ticksClkGated::1000-5e+10           11    100.00%    100.00% # Distribution of time spent in the clock gated state (Tick)
system.cpu1.power_state.ticksClkGated::min_value     25931500                       # Distribution of time spent in the clock gated state (Tick)
system.cpu1.power_state.ticksClkGated::max_value    162416156                       # Distribution of time spent in the clock gated state (Tick)
system.cpu1.power_state.ticksClkGated::total           11                       # Distribution of time spent in the clock gated state (Tick)
system.cpu1.power_state.pwrStateResidencyTicks::ON   2761893032                       # Cumulative time (in ticks) in various power states (Tick)
system.cpu1.power_state.pwrStateResidencyTicks::CLK_GATED   1341815968                       # Cumulative time (in ticks) in various power states (Tick)
system.cpu1.thread_0.numInsts                       0                       # Number of Instructions committed (Count)
system.cpu1.thread_0.numOps                         0                       # Number of Ops committed (Count)
system.cpu1.thread_0.numMemRefs                     0                       # Number of Memory References (Count)
system.cpu2.numCycles                         8207429                       # Number of cpu cycles simulated (Cycle)
system.cpu2.numWorkItemsStarted                     0                       # Number of work items this cpu started (Count)
system.cpu2.numWorkItemsCompleted                   0                       # Number of work items this cpu completed (Count)
system.cpu2.exec_context.thread_0.numInsts      4800858                       # Number of instructions committed (Count)
system.cpu2.exec_context.thread_0.numOps      5532661                       # Number of ops (including micro ops) committed (Count)
system.cpu2.exec_context.thread_0.numIntAluAccesses      4925152                       # Number of integer alu accesses (Count)
system.cpu2.exec_context.thread_0.numFpAluAccesses            0                       # Number of float alu accesses (Count)
system.cpu2.exec_context.thread_0.numVecAluAccesses          359                       # Number of vector alu accesses (Count)
system.cpu2.exec_context.thread_0.numCallsReturns       274037                       # Number of times a function call or return occured (Count)
system.cpu2.exec_context.thread_0.numCondCtrlInsts       676686                       # Number of instructions that are conditional controls (Count)
system.cpu2.exec_context.thread_0.numIntInsts      4925152                       # Number of integer instructions (Count)
system.cpu2.exec_context.thread_0.numFpInsts            0                       # Number of float instructions (Count)
system.cpu2.exec_context.thread_0.numVecInsts          359                       # Number of vector instructions (Count)
system.cpu2.exec_context.thread_0.numIntRegReads      6821004                       # Number of times the integer registers were read (Count)
system.cpu2.exec_context.thread_0.numIntRegWrites      3804283                       # Number of times the integer registers were written (Count)
system.cpu2.exec_context.thread_0.numFpRegReads            0                       # Number of times the floating registers were read (Count)
system.cpu2.exec_context.thread_0.numFpRegWrites            0                       # Number of times the floating registers were written (Count)
system.cpu2.exec_context.thread_0.numVecRegReads          289                       # Number of times the vector registers were read (Count)
system.cpu2.exec_context.thread_0.numVecRegWrites          156                       # Number of times the vector registers were written (Count)
system.cpu2.exec_context.thread_0.numVecPredRegReads            0                       # Number of times the predicate registers were read (Count)
system.cpu2.exec_context.thread_0.numVecPredRegWrites            0                       # Number of times the predicate registers were written (Count)
system.cpu2.exec_context.thread_0.numCCRegReads     15090735                       # Number of times the CC registers were read (Count)
system.cpu2.exec_context.thread_0.numCCRegWrites      3388190                       # Number of times the CC registers were written (Count)
system.cpu2.exec_context.thread_0.numMiscRegReads       665334                       # Number of times the Misc registers were read (Count)
system.cpu2.exec_context.thread_0.numMiscRegWrites         7827                       # Number of times the Misc registers were written (Count)
system.cpu2.exec_context.thread_0.numMemRefs       789396                       # Number of memory refs (Count)
system.cpu2.exec_context.thread_0.numLoadInsts       426927                       # Number of load instructions (Count)
system.cpu2.exec_context.thread_0.numStoreInsts       362469                       # Number of store instructions (Count)
system.cpu2.exec_context.thread_0.numIdleCycles 2573830.807671                       # Number of idle cycles (Cycle)
system.cpu2.exec_context.thread_0.numBusyCycles 5633598.192329                       # Number of busy cycles (Cycle)
system.cpu2.exec_context.thread_0.notIdleFraction     0.686402                       # Percentage of non-idle cycles (Ratio)
system.cpu2.exec_context.thread_0.idleFraction     0.313598                       # Percentage of idle cycles (Ratio)
system.cpu2.exec_context.thread_0.numBranches       911392                       # Number of branches fetched (Count)
system.cpu2.exec_context.thread_0.statExecutedInstType::No_OpClass           97      0.00%      0.00% # Class of executed instruction. (Count)
system.cpu2.exec_context.thread_0.statExecutedInstType::IntAlu      4589159     82.95%     82.95% # Class of executed instruction. (Count)
system.cpu2.exec_context.thread_0.statExecutedInstType::IntMult       153940      2.78%     85.73% # Class of executed instruction. (Count)
system.cpu2.exec_context.thread_0.statExecutedInstType::IntDiv           63      0.00%     85.73% # Class of executed instruction. (Count)
system.cpu2.exec_context.thread_0.statExecutedInstType::FloatAdd            0      0.00%     85.73% # Class of executed instruction. (Count)
system.cpu2.exec_context.thread_0.statExecutedInstType::FloatCmp            0      0.00%     85.73% # Class of executed instruction. (Count)
system.cpu2.exec_context.thread_0.statExecutedInstType::FloatCvt            0      0.00%     85.73% # Class of executed instruction. (Count)
system.cpu2.exec_context.thread_0.statExecutedInstType::FloatMult            0      0.00%     85.73% # Class of executed instruction. (Count)
system.cpu2.exec_context.thread_0.statExecutedInstType::FloatMultAcc            0      0.00%     85.73% # Class of executed instruction. (Count)
system.cpu2.exec_context.thread_0.statExecutedInstType::FloatDiv            0      0.00%     85.73% # Class of executed instruction. (Count)
system.cpu2.exec_context.thread_0.statExecutedInstType::FloatMisc            0      0.00%     85.73% # Class of executed instruction. (Count)
system.cpu2.exec_context.thread_0.statExecutedInstType::FloatSqrt            0      0.00%     85.73% # Class of executed instruction. (Count)
system.cpu2.exec_context.thread_0.statExecutedInstType::SimdAdd           14      0.00%     85.73% # Class of executed instruction. (Count)
system.cpu2.exec_context.thread_0.statExecutedInstType::SimdAddAcc            0      0.00%     85.73% # Class of executed instruction. (Count)
system.cpu2.exec_context.thread_0.statExecutedInstType::SimdAlu           14      0.00%     85.73% # Class of executed instruction. (Count)
system.cpu2.exec_context.thread_0.statExecutedInstType::SimdCmp           12      0.00%     85.73% # Class of executed instruction. (Count)
system.cpu2.exec_context.thread_0.statExecutedInstType::SimdCvt            0      0.00%     85.73% # Class of executed instruction. (Count)
system.cpu2.exec_context.thread_0.statExecutedInstType::SimdMisc           14      0.00%     85.73% # Class of executed instruction. (Count)
system.cpu2.exec_context.thread_0.statExecutedInstType::SimdMult            0      0.00%     85.73% # Class of executed instruction. (Count)
system.cpu2.exec_context.thread_0.statExecutedInstType::SimdMultAcc            0      0.00%     85.73% # Class of executed instruction. (Count)
system.cpu2.exec_context.thread_0.statExecutedInstType::SimdShift            0      0.00%     85.73% # Class of executed instruction. (Count)
system.cpu2.exec_context.thread_0.statExecutedInstType::SimdShiftAcc            0      0.00%     85.73% # Class of executed instruction. (Count)
system.cpu2.exec_context.thread_0.statExecutedInstType::SimdDiv            0      0.00%     85.73% # Class of executed instruction. (Count)
system.cpu2.exec_context.thread_0.statExecutedInstType::SimdSqrt            0      0.00%     85.73% # Class of executed instruction. (Count)
system.cpu2.exec_context.thread_0.statExecutedInstType::SimdFloatAdd            0      0.00%     85.73% # Class of executed instruction. (Count)
system.cpu2.exec_context.thread_0.statExecutedInstType::SimdFloatAlu            0      0.00%     85.73% # Class of executed instruction. (Count)
system.cpu2.exec_context.thread_0.statExecutedInstType::SimdFloatCmp            0      0.00%     85.73% # Class of executed instruction. (Count)
system.cpu2.exec_context.thread_0.statExecutedInstType::SimdFloatCvt            0      0.00%     85.73% # Class of executed instruction. (Count)
system.cpu2.exec_context.thread_0.statExecutedInstType::SimdFloatDiv            0      0.00%     85.73% # Class of executed instruction. (Count)
system.cpu2.exec_context.thread_0.statExecutedInstType::SimdFloatMisc            0      0.00%     85.73% # Class of executed instruction. (Count)
system.cpu2.exec_context.thread_0.statExecutedInstType::SimdFloatMult            0      0.00%     85.73% # Class of executed instruction. (Count)
system.cpu2.exec_context.thread_0.statExecutedInstType::SimdFloatMultAcc            0      0.00%     85.73% # Class of executed instruction. (Count)
system.cpu2.exec_context.thread_0.statExecutedInstType::SimdFloatSqrt            0      0.00%     85.73% # Class of executed instruction. (Count)
system.cpu2.exec_context.thread_0.statExecutedInstType::SimdReduceAdd            0      0.00%     85.73% # Class of executed instruction. (Count)
system.cpu2.exec_context.thread_0.statExecutedInstType::SimdReduceAlu            0      0.00%     85.73% # Class of executed instruction. (Count)
system.cpu2.exec_context.thread_0.statExecutedInstType::SimdReduceCmp            0      0.00%     85.73% # Class of executed instruction. (Count)
system.cpu2.exec_context.thread_0.statExecutedInstType::SimdFloatReduceAdd            0      0.00%     85.73% # Class of executed instruction. (Count)
system.cpu2.exec_context.thread_0.statExecutedInstType::SimdFloatReduceCmp            0      0.00%     85.73% # Class of executed instruction. (Count)
system.cpu2.exec_context.thread_0.statExecutedInstType::SimdAes            0      0.00%     85.73% # Class of executed instruction. (Count)
system.cpu2.exec_context.thread_0.statExecutedInstType::SimdAesMix            0      0.00%     85.73% # Class of executed instruction. (Count)
system.cpu2.exec_context.thread_0.statExecutedInstType::SimdSha1Hash            0      0.00%     85.73% # Class of executed instruction. (Count)
system.cpu2.exec_context.thread_0.statExecutedInstType::SimdSha1Hash2            0      0.00%     85.73% # Class of executed instruction. (Count)
system.cpu2.exec_context.thread_0.statExecutedInstType::SimdSha256Hash            0      0.00%     85.73% # Class of executed instruction. (Count)
system.cpu2.exec_context.thread_0.statExecutedInstType::SimdSha256Hash2            0      0.00%     85.73% # Class of executed instruction. (Count)
system.cpu2.exec_context.thread_0.statExecutedInstType::SimdShaSigma2            0      0.00%     85.73% # Class of executed instruction. (Count)
system.cpu2.exec_context.thread_0.statExecutedInstType::SimdShaSigma3            0      0.00%     85.73% # Class of executed instruction. (Count)
system.cpu2.exec_context.thread_0.statExecutedInstType::SimdPredAlu            0      0.00%     85.73% # Class of executed instruction. (Count)
system.cpu2.exec_context.thread_0.statExecutedInstType::MemRead       426927      7.72%     93.45% # Class of executed instruction. (Count)
system.cpu2.exec_context.thread_0.statExecutedInstType::MemWrite       362469      6.55%    100.00% # Class of executed instruction. (Count)
system.cpu2.exec_context.thread_0.statExecutedInstType::FloatMemRead            0      0.00%    100.00% # Class of executed instruction. (Count)
system.cpu2.exec_context.thread_0.statExecutedInstType::FloatMemWrite            0      0.00%    100.00% # Class of executed instruction. (Count)
system.cpu2.exec_context.thread_0.statExecutedInstType::IprAccess            0      0.00%    100.00% # Class of executed instruction. (Count)
system.cpu2.exec_context.thread_0.statExecutedInstType::InstPrefetch            0      0.00%    100.00% # Class of executed instruction. (Count)
system.cpu2.exec_context.thread_0.statExecutedInstType::total      5532709                       # Class of executed instruction. (Count)
system.cpu2.mmu.alignFaults                         0                       # Number of MMU faults due to alignment restrictions (Count)
system.cpu2.mmu.prefetchFaults                     18                       # Number of MMU faults due to prefetch (Count)
system.cpu2.mmu.domainFaults                        0                       # Number of MMU faults due to domain restrictions (Count)
system.cpu2.mmu.permsFaults                         5                       # Number of MMU faults due to permissions restrictions (Count)
system.cpu2.mmu.dtb.readHits                   346552                       # Read hits (Count)
system.cpu2.mmu.dtb.readMisses                    253                       # Read misses (Count)
system.cpu2.mmu.dtb.writeHits                  362428                       # Write hits (Count)
system.cpu2.mmu.dtb.writeMisses                    60                       # Write misses (Count)
system.cpu2.mmu.dtb.inserts                       264                       # Number of times an entry is inserted into the TLB (Count)
system.cpu2.mmu.dtb.flushTlb                        0                       # Number of times complete TLB was flushed (Count)
system.cpu2.mmu.dtb.flushTlbMva                     0                       # Number of times TLB was flushed by MVA (Count)
system.cpu2.mmu.dtb.flushTlbMvaAsid               126                       # Number of times TLB was flushed by MVA & ASID (Count)
system.cpu2.mmu.dtb.flushTlbAsid                    6                       # Number of times TLB was flushed by ASID (Count)
system.cpu2.mmu.dtb.flushedEntries                  5                       # Number of entries that have been flushed from TLB (Count)
system.cpu2.mmu.dtb.readAccesses               346805                       # Read accesses (Count)
system.cpu2.mmu.dtb.writeAccesses              362488                       # Write accesses (Count)
system.cpu2.mmu.dtb.hits                       708980                       # Total TLB (inst and data) hits (Count)
system.cpu2.mmu.dtb.misses                        313                       # Total TLB (inst and data) misses (Count)
system.cpu2.mmu.dtb.accesses                   709293                       # Total TLB (inst and data) accesses (Count)
system.cpu2.mmu.dtb_walker.walks                  281                       # Table walker walks requested (Count)
system.cpu2.mmu.dtb_walker.walksLongDescriptor          281                       # Table walker walks initiated with long descriptors (Count)
system.cpu2.mmu.dtb_walker.walkWaitTime::samples          281                       # Table walker wait (enqueue to first request) latency (Tick)
system.cpu2.mmu.dtb_walker.walkWaitTime::0          281    100.00%    100.00% # Table walker wait (enqueue to first request) latency (Tick)
system.cpu2.mmu.dtb_walker.walkWaitTime::total          281                       # Table walker wait (enqueue to first request) latency (Tick)
system.cpu2.mmu.dtb_walker.pageSizes::4KiB          211     84.40%     84.40% # Table walker page sizes translated (Count)
system.cpu2.mmu.dtb_walker.pageSizes::2MiB           39     15.60%    100.00% # Table walker page sizes translated (Count)
system.cpu2.mmu.dtb_walker.pageSizes::total          250                       # Table walker page sizes translated (Count)
system.cpu2.mmu.dtb_walker.requestOrigin_Requested::Data          281                       # Table walker requests started/completed, data/inst (Count)
system.cpu2.mmu.dtb_walker.requestOrigin_Requested::Inst            0                       # Table walker requests started/completed, data/inst (Count)
system.cpu2.mmu.dtb_walker.requestOrigin_Requested::total          281                       # Table walker requests started/completed, data/inst (Count)
system.cpu2.mmu.dtb_walker.requestOrigin_Completed::Data          250                       # Table walker requests started/completed, data/inst (Count)
system.cpu2.mmu.dtb_walker.requestOrigin_Completed::Inst            0                       # Table walker requests started/completed, data/inst (Count)
system.cpu2.mmu.dtb_walker.requestOrigin_Completed::total          250                       # Table walker requests started/completed, data/inst (Count)
system.cpu2.mmu.dtb_walker.requestOrigin::total          531                       # Table walker requests started/completed, data/inst (Count)
system.cpu2.mmu.dtb_walker.power_state.pwrStateResidencyTicks::UNDEFINED 580025556000                       # Cumulative time (in ticks) in various power states (Tick)
system.cpu2.mmu.itb.instHits                  4800269                       # Inst hits (Count)
system.cpu2.mmu.itb.instMisses                    657                       # Inst misses (Count)
system.cpu2.mmu.itb.inserts                       637                       # Number of times an entry is inserted into the TLB (Count)
system.cpu2.mmu.itb.flushTlb                        0                       # Number of times complete TLB was flushed (Count)
system.cpu2.mmu.itb.flushTlbMva                     0                       # Number of times TLB was flushed by MVA (Count)
system.cpu2.mmu.itb.flushTlbMvaAsid               126                       # Number of times TLB was flushed by MVA & ASID (Count)
system.cpu2.mmu.itb.flushTlbAsid                    6                       # Number of times TLB was flushed by ASID (Count)
system.cpu2.mmu.itb.flushedEntries                  0                       # Number of entries that have been flushed from TLB (Count)
system.cpu2.mmu.itb.instAccesses              4800926                       # Inst accesses (Count)
[...]
system.membus.pktSize_system.cpu3.icache_port::system.mem_ctrls.port        75052                       # Cumulative packet size per connected requestor and responder (Byte)
system.membus.pktSize_system.cpu3.icache_port::total        75052                       # Cumulative packet size per connected requestor and responder (Byte)
system.membus.pktSize_system.cpu3.dcache_port::system.bridge.cpu_side_port            4                       # Cumulative packet size per connected requestor and responder (Byte)
system.membus.pktSize_system.cpu3.dcache_port::system.realview.gic.pio           12                       # Cumulative packet size per connected requestor and responder (Byte)
system.membus.pktSize_system.cpu3.dcache_port::system.mem_ctrls.port        66842                       # Cumulative packet size per connected requestor and responder (Byte)
system.membus.pktSize_system.cpu3.dcache_port::total        66858                       # Cumulative packet size per connected requestor and responder (Byte)
system.membus.pktSize_system.cpu3.mmu.itb_walker.port::system.mem_ctrls.port           80                       # Cumulative packet size per connected requestor and responder (Byte)
system.membus.pktSize_system.cpu3.mmu.itb_walker.port::total           80                       # Cumulative packet size per connected requestor and responder (Byte)
system.membus.pktSize_system.cpu3.mmu.dtb_walker.port::system.mem_ctrls.port            8                       # Cumulative packet size per connected requestor and responder (Byte)
system.membus.pktSize_system.cpu3.mmu.dtb_walker.port::total            8                       # Cumulative packet size per connected requestor and responder (Byte)
system.membus.pktSize_system.cpu4.icache_port::system.mem_ctrls.port     17513472                       # Cumulative packet size per connected requestor and responder (Byte)
system.membus.pktSize_system.cpu4.icache_port::total     17513472                       # Cumulative packet size per connected requestor and responder (Byte)
system.membus.pktSize_system.cpu4.dcache_port::system.bridge.cpu_side_port           20                       # Cumulative packet size per connected requestor and responder (Byte)
system.membus.pktSize_system.cpu4.dcache_port::system.realview.gic.pio           24                       # Cumulative packet size per connected requestor and responder (Byte)
system.membus.pktSize_system.cpu4.dcache_port::system.mem_ctrls.port      3085629                       # Cumulative packet size per connected requestor and responder (Byte)
system.membus.pktSize_system.cpu4.dcache_port::total      3085673                       # Cumulative packet size per connected requestor and responder (Byte)
system.membus.pktSize_system.cpu4.mmu.itb_walker.port::system.mem_ctrls.port         1104                       # Cumulative packet size per connected requestor and responder (Byte)
system.membus.pktSize_system.cpu4.mmu.itb_walker.port::total         1104                       # Cumulative packet size per connected requestor and responder (Byte)
system.membus.pktSize_system.cpu4.mmu.dtb_walker.port::system.mem_ctrls.port          864                       # Cumulative packet size per connected requestor and responder (Byte)
system.membus.pktSize_system.cpu4.mmu.dtb_walker.port::total          864                       # Cumulative packet size per connected requestor and responder (Byte)
system.membus.pktSize_system.cpu5.icache_port::system.mem_ctrls.port     19265848                       # Cumulative packet size per connected requestor and responder (Byte)
system.membus.pktSize_system.cpu5.icache_port::total     19265848                       # Cumulative packet size per connected requestor and responder (Byte)
system.membus.pktSize_system.cpu5.dcache_port::system.bridge.cpu_side_port           24                       # Cumulative packet size per connected requestor and responder (Byte)
system.membus.pktSize_system.cpu5.dcache_port::system.realview.gic.pio           24                       # Cumulative packet size per connected requestor and responder (Byte)
system.membus.pktSize_system.cpu5.dcache_port::system.mem_ctrls.port      3413481                       # Cumulative packet size per connected requestor and responder (Byte)
system.membus.pktSize_system.cpu5.dcache_port::total      3413529                       # Cumulative packet size per connected requestor and responder (Byte)
system.membus.pktSize_system.cpu5.mmu.itb_walker.port::system.mem_ctrls.port         1024                       # Cumulative packet size per connected requestor and responder (Byte)
system.membus.pktSize_system.cpu5.mmu.itb_walker.port::total         1024                       # Cumulative packet size per connected requestor and responder (Byte)
system.membus.pktSize_system.cpu5.mmu.dtb_walker.port::system.mem_ctrls.port          864                       # Cumulative packet size per connected requestor and responder (Byte)
system.membus.pktSize_system.cpu5.mmu.dtb_walker.port::total          864                       # Cumulative packet size per connected requestor and responder (Byte)
system.membus.pktSize_system.cpu6.icache_port::system.mem_ctrls.port     20043040                       # Cumulative packet size per connected requestor and responder (Byte)
system.membus.pktSize_system.cpu6.icache_port::total     20043040                       # Cumulative packet size per connected requestor and responder (Byte)
system.membus.pktSize_system.cpu6.dcache_port::system.bridge.cpu_side_port           84                       # Cumulative packet size per connected requestor and responder (Byte)
system.membus.pktSize_system.cpu6.dcache_port::system.realview.gic.pio           68                       # Cumulative packet size per connected requestor and responder (Byte)
system.membus.pktSize_system.cpu6.dcache_port::system.mem_ctrls.port      4164207                       # Cumulative packet size per connected requestor and responder (Byte)
system.membus.pktSize_system.cpu6.dcache_port::total      4164359                       # Cumulative packet size per connected requestor and responder (Byte)
system.membus.pktSize_system.cpu6.mmu.itb_walker.port::system.mem_ctrls.port         3840                       # Cumulative packet size per connected requestor and responder (Byte)
system.membus.pktSize_system.cpu6.mmu.itb_walker.port::total         3840                       # Cumulative packet size per connected requestor and responder (Byte)
system.membus.pktSize_system.cpu6.mmu.dtb_walker.port::system.mem_ctrls.port         2856                       # Cumulative packet size per connected requestor and responder (Byte)
system.membus.pktSize_system.cpu6.mmu.dtb_walker.port::total         2856                       # Cumulative packet size per connected requestor and responder (Byte)
system.membus.pktSize_system.cpu7.icache_port::system.mem_ctrls.port     28183240                       # Cumulative packet size per connected requestor and responder (Byte)
system.membus.pktSize_system.cpu7.icache_port::total     28183240                       # Cumulative packet size per connected requestor and responder (Byte)
system.membus.pktSize_system.cpu7.dcache_port::system.bridge.cpu_side_port          359                       # Cumulative packet size per connected requestor and responder (Byte)
system.membus.pktSize_system.cpu7.dcache_port::system.realview.gic.pio          140                       # Cumulative packet size per connected requestor and responder (Byte)
system.membus.pktSize_system.cpu7.dcache_port::system.mem_ctrls.port     17953711                       # Cumulative packet size per connected requestor and responder (Byte)
system.membus.pktSize_system.cpu7.dcache_port::total     17954210                       # Cumulative packet size per connected requestor and responder (Byte)
system.membus.pktSize_system.cpu7.mmu.itb_walker.port::system.mem_ctrls.port         4616                       # Cumulative packet size per connected requestor and responder (Byte)
system.membus.pktSize_system.cpu7.mmu.itb_walker.port::total         4616                       # Cumulative packet size per connected requestor and responder (Byte)
system.membus.pktSize_system.cpu7.mmu.dtb_walker.port::system.mem_ctrls.port         3832                       # Cumulative packet size per connected requestor and responder (Byte)
system.membus.pktSize_system.cpu7.mmu.dtb_walker.port::total         3832                       # Cumulative packet size per connected requestor and responder (Byte)
system.membus.pktSize::total                183309996                       # Cumulative packet size per connected requestor and responder (Byte)
system.membus.snoops                                0                       # Total snoops (Count)
system.membus.snoopTraffic                          0                       # Total snoop traffic (Byte)
system.membus.snoopFanout::samples           43317508                       # Request fanout histogram (Count)
system.membus.snoopFanout::mean                     0                       # Request fanout histogram (Count)
system.membus.snoopFanout::stdev                    0                       # Request fanout histogram (Count)
system.membus.snoopFanout::underflows               0      0.00%      0.00% # Request fanout histogram (Count)
system.membus.snoopFanout::0                 43317508    100.00%    100.00% # Request fanout histogram (Count)
system.membus.snoopFanout::1                        0      0.00%    100.00% # Request fanout histogram (Count)
system.membus.snoopFanout::2                        0      0.00%    100.00% # Request fanout histogram (Count)
system.membus.snoopFanout::3                        0      0.00%    100.00% # Request fanout histogram (Count)
system.membus.snoopFanout::4                        0      0.00%    100.00% # Request fanout histogram (Count)
system.membus.snoopFanout::5                        0      0.00%    100.00% # Request fanout histogram (Count)
system.membus.snoopFanout::6                        0      0.00%    100.00% # Request fanout histogram (Count)
system.membus.snoopFanout::7                        0      0.00%    100.00% # Request fanout histogram (Count)
system.membus.snoopFanout::8                        0      0.00%    100.00% # Request fanout histogram (Count)
system.membus.snoopFanout::overflows                0      0.00%    100.00% # Request fanout histogram (Count)
system.membus.snoopFanout::min_value                0                       # Request fanout histogram (Count)
system.membus.snoopFanout::max_value                0                       # Request fanout histogram (Count)
system.membus.snoopFanout::total             43317508                       # Request fanout histogram (Count)
system.membus.badaddr_responder.power_state.pwrStateResidencyTicks::UNDEFINED 580025556000                       # Cumulative time (in ticks) in various power states (Tick)
system.membus.power_state.pwrStateResidencyTicks::UNDEFINED 580025556000                       # Cumulative time (in ticks) in various power states (Tick)
system.membus.snoop_filter.totRequests           7616                       # Total number of requests made to the snoop filter. (Count)
system.membus.snoop_filter.hitSingleRequests            0                       # Number of requests hitting in the snoop filter with a single holder of the requested data. (Count)
system.membus.snoop_filter.hitMultiRequests            0                       # Number of requests hitting in the snoop filter with multiple (>1) holders of the requested data. (Count)
system.membus.snoop_filter.totSnoops                0                       # Total number of snoops made to the snoop filter. (Count)
system.membus.snoop_filter.hitSingleSnoops            0                       # Number of snoops hitting in the snoop filter with a single holder of the requested data. (Count)
system.membus.snoop_filter.hitMultiSnoops            0                       # Number of snoops hitting in the snoop filter with multiple (>1) holders of the requested data. (Count)
system.pci_ide.disks.IdeDisk.dmaReadFullPages            0                       # Number of full page size DMA reads (not PRD). (Count)
system.pci_ide.disks.IdeDisk.dmaReadBytes            0                       # Number of bytes transfered via DMA reads (not PRD). (Byte)
system.pci_ide.disks.IdeDisk.dmaReadTxs             0                       # Number of DMA read transactions (not PRD). (Count)
system.pci_ide.disks.IdeDisk.dmaWriteFullPages          137                       # Number of full page size DMA writes. (Count)
system.pci_ide.disks.IdeDisk.dmaWriteBytes       561152                       # Number of bytes transfered via DMA writes. (Byte)
system.pci_ide.disks.IdeDisk.dmaWriteTxs          137                       # Number of DMA write transactions. (Count)
system.pci_ide.power_state.pwrStateResidencyTicks::UNDEFINED 580025556000                       # Cumulative time (in ticks) in various power states (Tick)
system.realview.bootmem.power_state.pwrStateResidencyTicks::UNDEFINED 580025556000                       # Cumulative time (in ticks) in various power states (Tick)
system.realview.clock24MHz.clock                41667                       # Clock period in ticks (Tick)
system.realview.clock32KHz.clock             31250000                       # Clock period in ticks (Tick)
system.realview.dcc.osc_cpu.clock               16667                       # Clock period in ticks (Tick)
system.realview.dcc.osc_ddr.clock               25000                       # Clock period in ticks (Tick)
system.realview.dcc.osc_hsbm.clock              25000                       # Clock period in ticks (Tick)
system.realview.dcc.osc_pxl.clock               42105                       # Clock period in ticks (Tick)
system.realview.dcc.osc_smb.clock               20000                       # Clock period in ticks (Tick)
system.realview.dcc.osc_sys.clock               16667                       # Clock period in ticks (Tick)
system.realview.el2_watchdog.power_state.pwrStateResidencyTicks::UNDEFINED 580025556000                       # Cumulative time (in ticks) in various power states (Tick)
system.realview.energy_ctrl.power_state.pwrStateResidencyTicks::UNDEFINED 580025556000                       # Cumulative time (in ticks) in various power states (Tick)
system.realview.flash0.power_state.pwrStateResidencyTicks::UNDEFINED 580025556000                       # Cumulative time (in ticks) in various power states (Tick)
system.realview.flash1.power_state.pwrStateResidencyTicks::UNDEFINED 580025556000                       # Cumulative time (in ticks) in various power states (Tick)
system.realview.generic_timer_mem.frames0.power_state.pwrStateResidencyTicks::UNDEFINED 580025556000                       # Cumulative time (in ticks) in various power states (Tick)
system.realview.generic_timer_mem.frames1.power_state.pwrStateResidencyTicks::UNDEFINED 580025556000                       # Cumulative time (in ticks) in various power states (Tick)
system.realview.generic_timer_mem.power_state.pwrStateResidencyTicks::UNDEFINED 580025556000                       # Cumulative time (in ticks) in various power states (Tick)
system.realview.gic.power_state.pwrStateResidencyTicks::UNDEFINED 580025556000                       # Cumulative time (in ticks) in various power states (Tick)
system.realview.gicv2m.power_state.pwrStateResidencyTicks::UNDEFINED 580025556000                       # Cumulative time (in ticks) in various power states (Tick)
system.realview.io_voltage.voltage           3.300000                       # Voltage in Volts (Volt)
system.realview.kmi0.power_state.pwrStateResidencyTicks::UNDEFINED 580025556000                       # Cumulative time (in ticks) in various power states (Tick)
system.realview.kmi1.power_state.pwrStateResidencyTicks::UNDEFINED 580025556000                       # Cumulative time (in ticks) in various power states (Tick)
system.realview.mcc.osc_clcd.clock              42105                       # Clock period in ticks (Tick)
system.realview.mcc.osc_mcc.clock               20000                       # Clock period in ticks (Tick)
system.realview.mcc.osc_peripheral.clock        41667                       # Clock period in ticks (Tick)
system.realview.mcc.osc_system_bus.clock        41667                       # Clock period in ticks (Tick)
system.realview.non_trusted_sram.power_state.pwrStateResidencyTicks::UNDEFINED 580025556000                       # Cumulative time (in ticks) in various power states (Tick)
system.realview.pci_host.power_state.pwrStateResidencyTicks::UNDEFINED 580025556000                       # Cumulative time (in ticks) in various power states (Tick)
system.realview.pwr_ctrl.power_state.pwrStateResidencyTicks::UNDEFINED 580025556000                       # Cumulative time (in ticks) in various power states (Tick)
system.realview.realview_io.power_state.pwrStateResidencyTicks::UNDEFINED 580025556000                       # Cumulative time (in ticks) in various power states (Tick)
system.realview.rtc.power_state.pwrStateResidencyTicks::UNDEFINED 580025556000                       # Cumulative time (in ticks) in various power states (Tick)
system.realview.system_watchdog.power_state.pwrStateResidencyTicks::UNDEFINED 580025556000                       # Cumulative time (in ticks) in various power states (Tick)
system.realview.trusted_dram.power_state.pwrStateResidencyTicks::UNDEFINED 580025556000                       # Cumulative time (in ticks) in various power states (Tick)
system.realview.trusted_sram.power_state.pwrStateResidencyTicks::UNDEFINED 580025556000                       # Cumulative time (in ticks) in various power states (Tick)
system.realview.trusted_watchdog.power_state.pwrStateResidencyTicks::UNDEFINED 580025556000                       # Cumulative time (in ticks) in various power states (Tick)
system.realview.uart0.power_state.pwrStateResidencyTicks::UNDEFINED 580025556000                       # Cumulative time (in ticks) in various power states (Tick)
system.realview.uart1.power_state.pwrStateResidencyTicks::UNDEFINED 580025556000                       # Cumulative time (in ticks) in various power states (Tick)
system.realview.uart2.power_state.pwrStateResidencyTicks::UNDEFINED 580025556000                       # Cumulative time (in ticks) in various power states (Tick)
system.realview.uart3.power_state.pwrStateResidencyTicks::UNDEFINED 580025556000                       # Cumulative time (in ticks) in various power states (Tick)
system.realview.vgic.power_state.pwrStateResidencyTicks::UNDEFINED 580025556000                       # Cumulative time (in ticks) in various power states (Tick)
system.realview.vio0.power_state.pwrStateResidencyTicks::UNDEFINED 580025556000                       # Cumulative time (in ticks) in various power states (Tick)
system.realview.vio1.power_state.pwrStateResidencyTicks::UNDEFINED 580025556000                       # Cumulative time (in ticks) in various power states (Tick)
system.realview.vram.power_state.pwrStateResidencyTicks::UNDEFINED 580025556000                       # Cumulative time (in ticks) in various power states (Tick)
system.realview.watchdog.power_state.pwrStateResidencyTicks::UNDEFINED 580025556000                       # Cumulative time (in ticks) in various power states (Tick)
system.voltage_domain.voltage                       1                       # Voltage in Volts (Volt)
system.workload.inst.arm                            0                       # number of arm instructions executed (Count)
system.workload.inst.quiesce                      108                       # number of quiesce instructions executed (Count)

---------- End Simulation Statistics   ----------
