
---------- Begin Simulation Statistics ----------
simSeconds                                   0.009270                       # Number of seconds simulated (Second)
simTicks                                   9269530000                       # Number of ticks simulated (Tick)
finalTick                                585264852500                       # Number of ticks from beginning of simulation (restored from checkpoints and never reset) (Tick)
simFreq                                  1000000000000                       # The number of ticks per simulated second ((Tick/Second))
hostSeconds                                     40.76                       # Real time elapsed on the host (Second)
hostTickRate                                227396523                       # The number of ticks simulated per host second (ticks/s) ((Tick/Second))
hostMemory                                    1217780                       # Number of bytes of host memory used (Byte)
simInsts                                    191878984                       # Number of instructions simulated (Count)
simOps                                      222533908                       # Number of ops (including micro ops) simulated (Count)
hostInstRate                                  4707058                       # Simulator instruction rate (inst/s) ((Count/Second))
hostOpRate                                    5459057                       # Simulator op (including micro ops) rate (op/s) ((Count/Second))
system.bridge.power_state.pwrStateResidencyTicks::UNDEFINED 585264852500                       # Cumulative time (in ticks) in various power states (Tick)
system.clk_domain.clock                          1000                       # Clock period in ticks (Tick)
system.cpu0.numCycles                        18554503                       # Number of cpu cycles simulated (Cycle)
system.cpu0.numWorkItemsStarted                     0                       # Number of work items this cpu started (Count)
system.cpu0.numWorkItemsCompleted                   0                       # Number of work items this cpu completed (Count)
system.cpu0.exec_context.thread_0.numInsts     13941087                       # Number of instructions committed (Count)
system.cpu0.exec_context.thread_0.numOps     16046841                       # Number of ops (including micro ops) committed (Count)
system.cpu0.exec_context.thread_0.numIntAluAccesses     14220270                       # Number of integer alu accesses (Count)
system.cpu0.exec_context.thread_0.numFpAluAccesses            0                       # Number of float alu accesses (Count)
system.cpu0.exec_context.thread_0.numVecAluAccesses           96                       # Number of vector alu accesses (Count)
system.cpu0.exec_context.thread_0.numCallsReturns       790530                       # Number of times a function call or return occured (Count)
system.cpu0.exec_context.thread_0.numCondCtrlInsts      1968853                       # Number of instructions that are conditional controls (Count)
system.cpu0.exec_context.thread_0.numIntInsts     14220270                       # Number of integer instructions (Count)
system.cpu0.exec_context.thread_0.numFpInsts            0                       # Number of float instructions (Count)
system.cpu0.exec_context.thread_0.numVecInsts           96                       # Number of vector instructions (Count)
system.cpu0.exec_context.thread_0.numIntRegReads     20053422                       # Number of times the integer registers were read (Count)
system.cpu0.exec_context.thread_0.numIntRegWrites     11058991                       # Number of times the integer registers were written (Count)
system.cpu0.exec_context.thread_0.numFpRegReads            0                       # Number of times the floating registers were read (Count)
system.cpu0.exec_context.thread_0.numFpRegWrites            0                       # Number of times the floating registers were written (Count)
system.cpu0.exec_context.thread_0.numVecRegReads           64                       # Number of times the vector registers were read (Count)
system.cpu0.exec_context.thread_0.numVecRegWrites           32                       # Number of times the vector registers were written (Count)
system.cpu0.exec_context.thread_0.numVecPredRegReads            0                       # Number of times the predicate registers were read (Count)
system.cpu0.exec_context.thread_0.numVecPredRegWrites            0                       # Number of times the predicate registers were written (Count)
system.cpu0.exec_context.thread_0.numCCRegReads     47920404                       # Number of times the CC registers were read (Count)
system.cpu0.exec_context.thread_0.numCCRegWrites     10492215                       # Number of times the CC registers were written (Count)
system.cpu0.exec_context.thread_0.numMiscRegReads      1977199                       # Number of times the Misc registers were read (Count)
system.cpu0.exec_context.thread_0.numMiscRegWrites          709                       # Number of times the Misc registers were written (Count)
system.cpu0.exec_context.thread_0.numMemRefs      1992294                       # Number of memory refs (Count)
system.cpu0.exec_context.thread_0.numLoadInsts      1061082                       # Number of load instructions (Count)
system.cpu0.exec_context.thread_0.numStoreInsts       931212                       # Number of store instructions (Count)
system.cpu0.exec_context.thread_0.numIdleCycles 2494300.617851                       # Number of idle cycles (Cycle)
system.cpu0.exec_context.thread_0.numBusyCycles 16060202.382149                       # Number of busy cycles (Cycle)
system.cpu0.exec_context.thread_0.notIdleFraction     0.865569                       # Percentage of non-idle cycles (Ratio)
system.cpu0.exec_context.thread_0.idleFraction     0.134431                       # Percentage of idle cycles (Ratio)
system.cpu0.exec_context.thread_0.numBranches      2620189                       # Number of branches fetched (Count)
system.cpu0.exec_context.thread_0.statExecutedInstType::No_OpClass            1      0.00%      0.00% # Class of executed instruction. (Count)
system.cpu0.exec_context.thread_0.statExecutedInstType::IntAlu     13563803     84.53%     84.53% # Class of executed instruction. (Count)
system.cpu0.exec_context.thread_0.statExecutedInstType::IntMult       490686      3.06%     87.58% # Class of executed instruction. (Count)
system.cpu0.exec_context.thread_0.statExecutedInstType::IntDiv           59      0.00%     87.58% # Class of executed instruction. (Count)
system.cpu0.exec_context.thread_0.statExecutedInstType::FloatAdd            0      0.00%     87.58% # Class of executed instruction. (Count)
system.cpu0.exec_context.thread_0.statExecutedInstType::FloatCmp            0      0.00%     87.58% # Class of executed instruction. (Count)
system.cpu0.exec_context.thread_0.statExecutedInstType::FloatCvt            0      0.00%     87.58% # Class of executed instruction. (Count)
system.cpu0.exec_context.thread_0.statExecutedInstType::FloatMult            0      0.00%     87.58% # Class of executed instruction. (Count)
system.cpu0.exec_context.thread_0.statExecutedInstType::FloatMultAcc            0      0.00%     87.58% # Class of executed instruction. (Count)
system.cpu0.exec_context.thread_0.statExecutedInstType::FloatDiv            0      0.00%     87.58% # Class of executed instruction. (Count)
system.cpu0.exec_context.thread_0.statExecutedInstType::FloatMisc            0      0.00%     87.58% # Class of executed instruction. (Count)
system.cpu0.exec_context.thread_0.statExecutedInstType::FloatSqrt            0      0.00%     87.58% # Class of executed instruction. (Count)
system.cpu0.exec_context.thread_0.statExecutedInstType::SimdAdd            0      0.00%     87.58% # Class of executed instruction. (Count)
system.cpu0.exec_context.thread_0.statExecutedInstType::SimdAddAcc            0      0.00%     87.58% # Class of executed instruction. (Count)
system.cpu0.exec_context.thread_0.statExecutedInstType::SimdAlu            0      0.00%     87.58% # Class of executed instruction. (Count)
system.cpu0.exec_context.thread_0.statExecutedInstType::SimdCmp            0      0.00%     87.58% # Class of executed instruction. (Count)
system.cpu0.exec_context.thread_0.statExecutedInstType::SimdCvt            0      0.00%     87.58% # Class of executed instruction. (Count)
system.cpu0.exec_context.thread_0.statExecutedInstType::SimdMisc            0      0.00%     87.58% # Class of executed instruction. (Count)
system.cpu0.exec_context.thread_0.statExecutedInstType::SimdMult            0      0.00%     87.58% # Class of executed instruction. (Count)
system.cpu0.exec_context.thread_0.statExecutedInstType::SimdMultAcc            0      0.00%     87.58% # Class of executed instruction. (Count)
system.cpu0.exec_context.thread_0.statExecutedInstType::SimdShift            0      0.00%     87.58% # Class of executed instruction. (Count)
system.cpu0.exec_context.thread_0.statExecutedInstType::SimdShiftAcc            0      0.00%     87.58% # Class of executed instruction. (Count)
system.cpu0.exec_context.thread_0.statExecutedInstType::SimdDiv            0      0.00%     87.58% # Class of executed instruction. (Count)
system.cpu0.exec_context.thread_0.statExecutedInstType::SimdSqrt            0      0.00%     87.58% # Class of executed instruction. (Count)
system.cpu0.exec_context.thread_0.statExecutedInstType::SimdFloatAdd            0      0.00%     87.58% # Class of executed instruction. (Count)
system.cpu0.exec_context.thread_0.statExecutedInstType::SimdFloatAlu            0      0.00%     87.58% # Class of executed instruction. (Count)
system.cpu0.exec_context.thread_0.statExecutedInstType::SimdFloatCmp            0      0.00%     87.58% # Class of executed instruction. (Count)
system.cpu0.exec_context.thread_0.statExecutedInstType::SimdFloatCvt            0      0.00%     87.58% # Class of executed instruction. (Count)
system.cpu0.exec_context.thread_0.statExecutedInstType::SimdFloatDiv            0      0.00%     87.58% # Class of executed instruction. (Count)
system.cpu0.exec_context.thread_0.statExecutedInstType::SimdFloatMisc            0      0.00%     87.58% # Class of executed instruction. (Count)
system.cpu0.exec_context.thread_0.statExecutedInstType::SimdFloatMult            0      0.00%     87.58% # Class of executed instruction. (Count)
system.cpu0.exec_context.thread_0.statExecutedInstType::SimdFloatMultAcc            0      0.00%     87.58% # Class of executed instruction. (Count)
system.cpu0.exec_context.thread_0.statExecutedInstType::SimdFloatSqrt            0      0.00%     87.58% # Class of executed instruction. (Count)
system.cpu0.exec_context.thread_0.statExecutedInstType::SimdReduceAdd            0      0.00%     87.58% # Class of executed instruction. (Count)
system.cpu0.exec_context.thread_0.statExecutedInstType::SimdReduceAlu            0      0.00%     87.58% # Class of executed instruction. (Count)
system.cpu0.exec_context.thread_0.statExecutedInstType::SimdReduceCmp            0      0.00%     87.58% # Class of executed instruction. (Count)
system.cpu0.exec_context.thread_0.statExecutedInstType::SimdFloatReduceAdd            0      0.00%     87.58% # Class of executed instruction. (Count)
system.cpu0.exec_context.thread_0.statExecutedInstType::SimdFloatReduceCmp            0      0.00%     87.58% # Class of executed instruction. (Count)
system.cpu0.exec_context.thread_0.statExecutedInstType::SimdAes            0      0.00%     87.58% # Class of executed instruction. (Count)
system.cpu0.exec_context.thread_0.statExecutedInstType::SimdAesMix            0      0.00%     87.58% # Class of executed instruction. (Count)
system.cpu0.exec_context.thread_0.statExecutedInstType::SimdSha1Hash            0      0.00%     87.58% # Class of executed instruction. (Count)
system.cpu0.exec_context.thread_0.statExecutedInstType::SimdSha1Hash2            0      0.00%     87.58% # Class of executed instruction. (Count)
system.cpu0.exec_context.thread_0.statExecutedInstType::SimdSha256Hash            0      0.00%     87.58% # Class of executed instruction. (Count)
system.cpu0.exec_context.thread_0.statExecutedInstType::SimdSha256Hash2            0      0.00%     87.58% # Class of executed instruction. (Count)
system.cpu0.exec_context.thread_0.statExecutedInstType::SimdShaSigma2            0      0.00%     87.58% # Class of executed instruction. (Count)
system.cpu0.exec_context.thread_0.statExecutedInstType::SimdShaSigma3            0      0.00%     87.58% # Class of executed instruction. (Count)
system.cpu0.exec_context.thread_0.statExecutedInstType::SimdPredAlu            0      0.00%     87.58% # Class of executed instruction. (Count)
system.cpu0.exec_context.thread_0.statExecutedInstType::MemRead      1061082      6.61%     94.20% # Class of executed instruction. (Count)
system.cpu0.exec_context.thread_0.statExecutedInstType::MemWrite       931212      5.80%    100.00% # Class of executed instruction. (Count)
system.cpu0.exec_context.thread_0.statExecutedInstType::FloatMemRead            0      0.00%    100.00% # Class of executed instruction. (Count)
system.cpu0.exec_context.thread_0.statExecutedInstType::FloatMemWrite            0      0.00%    100.00% # Class of executed instruction. (Count)
system.cpu0.exec_context.thread_0.statExecutedInstType::IprAccess            0      0.00%    100.00% # Class of executed instruction. (Count)
system.cpu0.exec_context.thread_0.statExecutedInstType::InstPrefetch            0      0.00%    100.00% # Class of executed instruction. (Count)
system.cpu0.exec_context.thread_0.statExecutedInstType::total     16046843                       # Class of executed instruction. (Count)
system.cpu0.mmu.alignFaults                         0                       # Number of MMU faults due to alignment restrictions (Count)
system.cpu0.mmu.prefetchFaults                      7                       # Number of MMU faults due to prefetch (Count)
system.cpu0.mmu.domainFaults                        0                       # Number of MMU faults due to domain restrictions (Count)
system.cpu0.mmu.permsFaults                         0                       # Number of MMU faults due to permissions restrictions (Count)
system.cpu0.mmu.dtb.readHits                   802977                       # Read hits (Count)
system.cpu0.mmu.dtb.readMisses                     92                       # Read misses (Count)
system.cpu0.mmu.dtb.writeHits                  931199                       # Write hits (Count)
system.cpu0.mmu.dtb.writeMisses                    10                       # Write misses (Count)
system.cpu0.mmu.dtb.inserts                        95                       # Number of times an entry is inserted into the TLB (Count)
system.cpu0.mmu.dtb.flushTlb                        0                       # Number of times complete TLB was flushed (Count)
system.cpu0.mmu.dtb.flushTlbMva                     0                       # Number of times TLB was flushed by MVA (Count)
system.cpu0.mmu.dtb.flushTlbMvaAsid               126                       # Number of times TLB was flushed by MVA & ASID (Count)
system.cpu0.mmu.dtb.flushTlbAsid                    6                       # Number of times TLB was flushed by ASID (Count)
system.cpu0.mmu.dtb.flushedEntries                  0                       # Number of entries that have been flushed from TLB (Count)
system.cpu0.mmu.dtb.readAccesses               803069                       # Read accesses (Count)
system.cpu0.mmu.dtb.writeAccesses              931209                       # Write accesses (Count)
system.cpu0.mmu.dtb.hits                      1734176                       # Total TLB (inst and data) hits (Count)
system.cpu0.mmu.dtb.misses                        102                       # Total TLB (inst and data) misses (Count)
system.cpu0.mmu.dtb.accesses                  1734278                       # Total TLB (inst and data) accesses (Count)
system.cpu0.mmu.dtb_walker.walks                   86                       # Table walker walks requested (Count)
system.cpu0.mmu.dtb_walker.walksLongDescriptor           86                       # Table walker walks initiated with long descriptors (Count)
system.cpu0.mmu.dtb_walker.walkWaitTime::samples           86                       # Table walker wait (enqueue to first request) latency (Tick)
system.cpu0.mmu.dtb_walker.walkWaitTime::0           86    100.00%    100.00% # Table walker wait (enqueue to first request) latency (Tick)
system.cpu0.mmu.dtb_walker.walkWaitTime::total           86                       # Table walker wait (enqueue to first request) latency (Tick)
system.cpu0.mmu.dtb_walker.pageSizes::4KiB           76     88.37%     88.37% # Table walker page sizes translated (Count)
system.cpu0.mmu.dtb_walker.pageSizes::2MiB           10     11.63%    100.00% # Table walker page sizes translated (Count)
system.cpu0.mmu.dtb_walker.pageSizes::total           86                       # Table walker page sizes translated (Count)
system.cpu0.mmu.dtb_walker.requestOrigin_Requested::Data           86                       # Table walker requests started/completed, data/inst (Count)
system.cpu0.mmu.dtb_walker.requestOrigin_Requested::Inst            0                       # Table walker requests started/completed, data/inst (Count)
system.cpu0.mmu.dtb_walker.requestOrigin_Requested::total           86                       # Table walker requests started/completed, data/inst (Count)
system.cpu0.mmu.dtb_walker.requestOrigin_Completed::Data           86                       # Table walker requests started/completed, data/inst (Count)
system.cpu0.mmu.dtb_walker.requestOrigin_Completed::Inst            0                       # Table walker requests started/completed, data/inst (Count)
system.cpu0.mmu.dtb_walker.requestOrigin_Completed::total           86                       # Table walker requests started/completed, data/inst (Count)
system.cpu0.mmu.dtb_walker.requestOrigin::total          172                       # Table walker requests started/completed, data/inst (Count)
system.cpu0.mmu.dtb_walker.power_state.pwrStateResidencyTicks::UNDEFINED 585264852500                       # Cumulative time (in ticks) in various power states (Tick)
system.cpu0.mmu.itb.instHits                 13940906                       # Inst hits (Count)
system.cpu0.mmu.itb.instMisses                    183                       # Inst misses (Count)
system.cpu0.mmu.itb.inserts                       183                       # Number of times an entry is inserted into the TLB (Count)
system.cpu0.mmu.itb.flushTlb                        0                       # Number of times complete TLB was flushed (Count)
system.cpu0.mmu.itb.flushTlbMva                     0                       # Number of times TLB was flushed by MVA (Count)
system.cpu0.mmu.itb.flushTlbMvaAsid               126                       # Number of times TLB was flushed by MVA & ASID (Count)
system.cpu0.mmu.itb.flushTlbAsid                    6                       # Number of times TLB was flushed by ASID (Count)
system.cpu0.mmu.itb.flushedEntries                  0                       # Number of entries that have been flushed from TLB (Count)
system.cpu0.mmu.itb.instAccesses             13941089                       # Inst accesses (Count)
system.cpu0.mmu.itb.hits                     13940906                       # Total TLB (inst and data) hits (Count)
system.cpu0.mmu.itb.misses                        183                       # Total TLB (inst and data) misses (Count)
system.cpu0.mmu.itb.accesses                 13941089                       # Total TLB (inst and data) accesses (Count)
system.cpu0.mmu.itb_walker.walks                  128                       # Table walker walks requested (Count)
system.cpu0.mmu.itb_walker.walksLongDescriptor          128                       # Table walker walks initiated with long descriptors (Count)
system.cpu0.mmu.itb_walker.walkWaitTime::samples          128                       # Table walker wait (enqueue to first request) latency (Tick)
system.cpu0.mmu.itb_walker.walkWaitTime::0          128    100.00%    100.00% # Table walker wait (enqueue to first request) latency (Tick)
system.cpu0.mmu.itb_walker.walkWaitTime::total          128                       # Table walker wait (enqueue to first request) latency (Tick)
system.cpu0.mmu.itb_walker.pageSizes::4KiB          126     98.44%     98.44% # Table walker page sizes translated (Count)
system.cpu0.mmu.itb_walker.pageSizes::2MiB            2      1.56%    100.00% # Table walker page sizes translated (Count)
system.cpu0.mmu.itb_walker.pageSizes::total          128                       # Table walker page sizes translated (Count)
system.cpu0.mmu.itb_walker.requestOrigin_Requested::Data            0                       # Table walker requests started/completed, data/inst (Count)
system.cpu0.mmu.itb_walker.requestOrigin_Requested::Inst          128                       # Table walker requests started/completed, data/inst (Count)
system.cpu0.mmu.itb_walker.requestOrigin_Requested::total          128                       # Table walker requests started/completed, data/inst (Count)
system.cpu0.mmu.itb_walker.requestOrigin_Completed::Data            0                       # Table walker requests started/completed, data/inst (Count)
system.cpu0.mmu.itb_walker.requestOrigin_Completed::Inst          128                       # Table walker requests started/completed, data/inst (Count)
system.cpu0.mmu.itb_walker.requestOrigin_Completed::total          128                       # Table walker requests started/completed, data/inst (Count)
system.cpu0.mmu.itb_walker.requestOrigin::total          256                       # Table walker requests started/completed, data/inst (Count)
system.cpu0.mmu.itb_walker.power_state.pwrStateResidencyTicks::UNDEFINED 585264852500                       # Cumulative time (in ticks) in various power states (Tick)
system.cpu0.mmu.l2_shared.partialHits             199                       # partial translation hits (Count)
system.cpu0.mmu.l2_shared.instHits                178                       # Inst hits (Count)
system.cpu0.mmu.l2_shared.instMisses                5                       # Inst misses (Count)
system.cpu0.mmu.l2_shared.readHits                 77                       # Read hits (Count)
system.cpu0.mmu.l2_shared.readMisses               15                       # Read misses (Count)
system.cpu0.mmu.l2_shared.writeHits                 8                       # Write hits (Count)
system.cpu0.mmu.l2_shared.writeMisses               2                       # Write misses (Count)
system.cpu0.mmu.l2_shared.inserts                 221                       # Number of times an entry is inserted into the TLB (Count)
system.cpu0.mmu.l2_shared.flushTlb                  0                       # Number of times complete TLB was flushed (Count)
system.cpu0.mmu.l2_shared.flushTlbMva               0                       # Number of times TLB was flushed by MVA (Count)
system.cpu0.mmu.l2_shared.flushTlbMvaAsid          126                       # Number of times TLB was flushed by MVA & ASID (Count)
system.cpu0.mmu.l2_shared.flushTlbAsid              6                       # Number of times TLB was flushed by ASID (Count)
system.cpu0.mmu.l2_shared.flushedEntries            2                       # Number of entries that have been flushed from TLB (Count)
system.cpu0.mmu.l2_shared.readAccesses             92                       # Read accesses (Count)
system.cpu0.mmu.l2_shared.writeAccesses            10                       # Write accesses (Count)
system.cpu0.mmu.l2_shared.instAccesses            183                       # Inst accesses (Count)
system.cpu0.mmu.l2_shared.hits                    263                       # Total TLB (inst and data) hits (Count)
system.cpu0.mmu.l2_shared.misses                   22                       # Total TLB (inst and data) misses (Count)
system.cpu0.mmu.l2_shared.accesses                285                       # Total TLB (inst and data) accesses (Count)
system.cpu0.mmu.stage2_dtb.readHits                 0                       # Read hits (Count)
system.cpu0.mmu.stage2_dtb.readMisses               0                       # Read misses (Count)
system.cpu0.mmu.stage2_dtb.writeHits                0                       # Write hits (Count)
system.cpu0.mmu.stage2_dtb.writeMisses              0                       # Write misses (Count)
system.cpu0.mmu.stage2_dtb.inserts                  0                       # Number of times an entry is inserted into the TLB (Count)
system.cpu0.mmu.stage2_dtb.flushTlb                 0                       # Number of times complete TLB was flushed (Count)
system.cpu0.mmu.stage2_dtb.flushTlbMva              0                       # Number of times TLB was flushed by MVA (Count)
system.cpu0.mmu.stage2_dtb.flushTlbMvaAsid            0                       # Number of times TLB was flushed by MVA & ASID (Count)
system.cpu0.mmu.stage2_dtb.flushTlbAsid             0                       # Number of times TLB was flushed by ASID (Count)
system.cpu0.mmu.stage2_dtb.flushedEntries            0                       # Number of entries that have been flushed from TLB (Count)
system.cpu0.mmu.stage2_dtb.readAccesses             0                       # Read accesses (Count)
system.cpu0.mmu.stage2_dtb.writeAccesses            0                       # Write accesses (Count)
system.cpu0.mmu.stage2_dtb.hits                     0                       # Total TLB (inst and data) hits (Count)
system.cpu0.mmu.stage2_dtb.misses                   0                       # Total TLB (inst and data) misses (Count)
system.cpu0.mmu.stage2_dtb.accesses                 0                       # Total TLB (inst and data) accesses (Count)
system.cpu0.mmu.stage2_dtb_walker.walks             0                       # Table walker walks requested (Count)
system.cpu0.mmu.stage2_dtb_walker.requestOrigin_Requested::Data            0                       # Table walker requests started/completed, data/inst (Count)
system.cpu0.mmu.stage2_dtb_walker.requestOrigin_Requested::Inst            0                       # Table walker requests started/completed, data/inst (Count)
system.cpu0.mmu.stage2_dtb_walker.requestOrigin_Requested::total            0                       # Table walker requests started/completed, data/inst (Count)
system.cpu0.mmu.stage2_dtb_walker.requestOrigin_Completed::Data            0                       # Table walker requests started/completed, data/inst (Count)
system.cpu0.mmu.stage2_dtb_walker.requestOrigin_Completed::Inst            0                       # Table walker requests started/completed, data/inst (Count)
system.cpu0.mmu.stage2_dtb_walker.requestOrigin_Completed::total            0                       # Table walker requests started/completed, data/inst (Count)
system.cpu0.mmu.stage2_dtb_walker.requestOrigin::total            0                       # Table walker requests started/completed, data/inst (Count)
system.cpu0.mmu.stage2_dtb_walker.power_state.pwrStateResidencyTicks::UNDEFINED 585264852500                       # Cumulative time (in ticks) in various power states (Tick)
system.cpu0.mmu.stage2_itb.instHits                 0                       # Inst hits (Count)
system.cpu0.mmu.stage2_itb.instMisses               0                       # Inst misses (Count)
system.cpu0.mmu.stage2_itb.inserts                  0                       # Number of times an entry is inserted into the TLB (Count)
system.cpu0.mmu.stage2_itb.flushTlb                 0                       # Number of times complete TLB was flushed (Count)
system.cpu0.mmu.stage2_itb.flushTlbMva              0                       # Number of times TLB was flushed by MVA (Count)
system.cpu0.mmu.stage2_itb.flushTlbMvaAsid            0                       # Number of times TLB was flushed by MVA & ASID (Count)
system.cpu0.mmu.stage2_itb.flushTlbAsid             0                       # Number of times TLB was flushed by ASID (Count)
system.cpu0.mmu.stage2_itb.flushedEntries            0                       # Number of entries that have been flushed from TLB (Count)
system.cpu0.mmu.stage2_itb.instAccesses             0                       # Inst accesses (Count)
system.cpu0.mmu.stage2_itb.hits                     0                       # Total TLB (inst and data) hits (Count)
system.cpu0.mmu.stage2_itb.misses                   0                       # Total TLB (inst and data) misses (Count)
system.cpu0.mmu.stage2_itb.accesses                 0                       # Total TLB (inst and data) accesses (Count)
system.cpu0.mmu.stage2_itb_walker.walks             0                       # Table walker walks requested (Count)
system.cpu0.mmu.stage2_itb_walker.requestOrigin_Requested::Data            0                       # Table walker requests started/completed, data/inst (Count)
system.cpu0.mmu.stage2_itb_walker.requestOrigin_Requested::Inst            0                       # Table walker requests started/completed, data/inst (Count)
system.cpu0.mmu.stage2_itb_walker.requestOrigin_Requested::total            0                       # Table walker requests started/completed, data/inst (Count)
system.cpu0.mmu.stage2_itb_walker.requestOrigin_Completed::Data            0                       # Table walker requests started/completed, data/inst (Count)
system.cpu0.mmu.stage2_itb_walker.requestOrigin_Completed::Inst            0                       # Table walker requests started/completed, data/inst (Count)
system.cpu0.mmu.stage2_itb_walker.requestOrigin_Completed::total            0                       # Table walker requests started/completed, data/inst (Count)
system.cpu0.mmu.stage2_itb_walker.requestOrigin::total            0                       # Table walker requests started/completed, data/inst (Count)
system.cpu0.mmu.stage2_itb_walker.power_state.pwrStateResidencyTicks::UNDEFINED 585264852500                       # Cumulative time (in ticks) in various power states (Tick)
system.cpu0.power_state.numTransitions             32                       # Number of power state transitions (Count)
system.cpu0.power_state.ticksClkGated::samples           17                       # Distribution of time spent in the clock gated state (Tick)
system.cpu0.power_state.ticksClkGated::mean 77622811.705882                       # Distribution of time spent in the clock gated state (Tick)
system.cpu0.power_state.ticksClkGated::stdev 54048057.039190                       # Distribution of time spent in the clock gated state (Tick)
system.cpu0.power_state.ticksClkGated::1000-5e+10           17    100.00%    100.00% # Distribution of time spent in the clock gated state (Tick)
system.cpu0.power_state.ticksClkGated::min_value      7288557                       # Distribution of time spent in the clock gated state (Tick)
system.cpu0.power_state.ticksClkGated::max_value    162416148                       # Distribution of time spent in the clock gated state (Tick)
system.cpu0.power_state.ticksClkGated::total           17                       # Distribution of time spent in the clock gated state (Tick)
system.cpu0.power_state.pwrStateResidencyTicks::ON   8023417701                       # Cumulative time (in ticks) in various power states (Tick)
system.cpu0.power_state.pwrStateResidencyTicks::CLK_GATED   1319587799                       # Cumulative time (in ticks) in various power states (Tick)
system.cpu0.thread_0.numInsts                       0                       # Number of Instructions committed (Count)
system.cpu0.thread_0.numOps                         0                       # Number of Ops committed (Count)
system.cpu0.thread_0.numMemRefs                     0                       # Number of Memory References (Count)
system.cpu1.numCycles                        18686070                       # Number of cpu cycles simulated (Cycle)
system.cpu1.numWorkItemsStarted                     0                       # Number of work items this cpu started (Count)
system.cpu1.numWorkItemsCompleted                   0                       # Number of work items this cpu completed (Count)
system.cpu1.exec_context.thread_0.numInsts       471868                       # Number of instructions committed (Count)
system.cpu1.exec_context.thread_0.numOps       554993                       # Number of ops (including micro ops) committed (Count)
system.cpu1.exec_context.thread_0.numIntAluAccesses       518009                       # Number of integer alu accesses (Count)
system.cpu1.exec_context.thread_0.numFpAluAccesses            0                       # Number of float alu accesses (Count)
system.cpu1.exec_context.thread_0.numVecAluAccesses          263                       # Number of vector alu accesses (Count)
system.cpu1.exec_context.thread_0.numCallsReturns        31609                       # Number of times a function call or return occured (Count)
system.cpu1.exec_context.thread_0.numCondCtrlInsts        62792                       # Number of instructions that are conditional controls (Count)
system.cpu1.exec_context.thread_0.numIntInsts       518009                       # Number of integer instructions (Count)
system.cpu1.exec_context.thread_0.numFpInsts            0                       # Number of float instructions (Count)
system.cpu1.exec_context.thread_0.numVecInsts          263                       # Number of vector instructions (Count)
system.cpu1.exec_context.thread_0.numIntRegReads       590366                       # Number of times the integer registers were read (Count)
system.cpu1.exec_context.thread_0.numIntRegWrites       377611                       # Number of times the integer registers were written (Count)
system.cpu1.exec_context.thread_0.numFpRegReads            0                       # Number of times the floating registers were read (Count)
system.cpu1.exec_context.thread_0.numFpRegWrites            0                       # Number of times the floating registers were written (Count)
system.cpu1.exec_context.thread_0.numVecRegReads          225                       # Number of times the vector registers were read (Count)
system.cpu1.exec_context.thread_0.numVecRegWrites          124                       # Number of times the vector registers were written (Count)
system.cpu1.exec_context.thread_0.numVecPredRegReads            0                       # Number of times the predicate registers were read (Count)
system.cpu1.exec_context.thread_0.numVecPredRegWrites            0                       # Number of times the predicate registers were written (Count)
system.cpu1.exec_context.thread_0.numCCRegReads       109077                       # Number of times the CC registers were read (Count)
system.cpu1.exec_context.thread_0.numCCRegWrites       107457                       # Number of times the CC registers were written (Count)
system.cpu1.exec_context.thread_0.numMiscRegReads        54864                       # Number of times the Misc registers were read (Count)
system.cpu1.exec_context.thread_0.numMiscRegWrites         7925                       # Number of times the Misc registers were written (Count)
system.cpu1.exec_context.thread_0.numMemRefs       179552                       # Number of memory refs (Count)
system.cpu1.exec_context.thread_0.numLoadInsts       102167                       # Number of load instructions (Count)
system.cpu1.exec_context.thread_0.numStoreInsts        77385                       # Number of store instructions (Count)
system.cpu1.exec_context.thread_0.numIdleCycles 18126642.284012                       # Number of idle cycles (Cycle)
system.cpu1.exec_context.thread_0.numBusyCycles 559427.715988                       # Number of busy cycles (Cycle)
system.cpu1.exec_context.thread_0.notIdleFraction     0.029938                       # Percentage of non-idle cycles (Ratio)
system.cpu1.exec_context.thread_0.idleFraction     0.970062                       # Percentage of idle cycles (Ratio)
system.cpu1.exec_context.thread_0.numBranches        98392                       # Number of branches fetched (Count)
system.cpu1.exec_context.thread_0.statExecutedInstType::No_OpClass           96      0.02%      0.02% # Class of executed instruction. (Count)
system.cpu1.exec_context.thread_0.statExecutedInstType::IntAlu       375074     67.58%     67.59% # Class of executed instruction. (Count)
system.cpu1.exec_context.thread_0.statExecutedInstType::IntMult          224      0.04%     67.63% # Class of executed instruction. (Count)
system.cpu1.exec_context.thread_0.statExecutedInstType::IntDiv           37      0.01%     67.64% # Class of executed instruction. (Count)
system.cpu1.exec_context.thread_0.statExecutedInstType::FloatAdd            0      0.00%     67.64% # Class of executed instruction. (Count)
system.cpu1.exec_context.thread_0.statExecutedInstType::FloatCmp            0      0.00%     67.64% # Class of executed instruction. (Count)
system.cpu1.exec_context.thread_0.statExecutedInstType::FloatCvt            0      0.00%     67.64% # Class of executed instruction. (Count)
system.cpu1.exec_context.thread_0.statExecutedInstType::FloatMult            0      0.00%     67.64% # Class of executed instruction. (Count)
system.cpu1.exec_context.thread_0.statExecutedInstType::FloatMultAcc            0      0.00%     67.64% # Class of executed instruction. (Count)
system.cpu1.exec_context.thread_0.statExecutedInstType::FloatDiv            0      0.00%     67.64% # Class of executed instruction. (Count)
system.cpu1.exec_context.thread_0.statExecutedInstType::FloatMisc            0      0.00%     67.64% # Class of executed instruction. (Count)
system.cpu1.exec_context.thread_0.statExecutedInstType::FloatSqrt            0      0.00%     67.64% # Class of executed instruction. (Count)
system.cpu1.exec_context.thread_0.statExecutedInstType::SimdAdd           14      0.00%     67.64% # Class of executed instruction. (Count)
system.cpu1.exec_context.thread_0.statExecutedInstType::SimdAddAcc            0      0.00%     67.64% # Class of executed instruction. (Count)
system.cpu1.exec_context.thread_0.statExecutedInstType::SimdAlu           14      0.00%     67.65% # Class of executed instruction. (Count)
system.cpu1.exec_context.thread_0.statExecutedInstType::SimdCmp           12      0.00%     67.65% # Class of executed instruction. (Count)
system.cpu1.exec_context.thread_0.statExecutedInstType::SimdCvt            0      0.00%     67.65% # Class of executed instruction. (Count)
system.cpu1.exec_context.thread_0.statExecutedInstType::SimdMisc           14      0.00%     67.65% # Class of executed instruction. (Count)
system.cpu1.exec_context.thread_0.statExecutedInstType::SimdMult            0      0.00%     67.65% # Class of executed instruction. (Count)
system.cpu1.exec_context.thread_0.statExecutedInstType::SimdMultAcc            0      0.00%     67.65% # Class of executed instruction. (Count)
system.cpu1.exec_context.thread_0.statExecutedInstType::SimdShift            0      0.00%     67.65% # Class of executed instruction. (Count)
system.cpu1.exec_context.thread_0.statExecutedInstType::SimdShiftAcc            0      0.00%     67.65% # Class of executed instruction. (Count)
system.cpu1.exec_context.thread_0.statExecutedInstType::SimdDiv            0      0.00%     67.65% # Class of executed instruction. (Count)
system.cpu1.exec_context.thread_0.statExecutedInstType::SimdSqrt            0      0.00%     67.65% # Class of executed instruction. (Count)
system.cpu1.exec_context.thread_0.statExecutedInstType::SimdFloatAdd            0      0.00%     67.65% # Class of executed instruction. (Count)
system.cpu1.exec_context.thread_0.statExecutedInstType::SimdFloatAlu            0      0.00%     67.65% # Class of executed instruction. (Count)
system.cpu1.exec_context.thread_0.statExecutedInstType::SimdFloatCmp            0      0.00%     67.65% # Class of executed instruction. (Count)
system.cpu1.exec_context.thread_0.statExecutedInstType::SimdFloatCvt            0      0.00%     67.65% # Class of executed instruction. (Count)
system.cpu1.exec_context.thread_0.statExecutedInstType::SimdFloatDiv            0      0.00%     67.65% # Class of executed instruction. (Count)
system.cpu1.exec_context.thread_0.statExecutedInstType::SimdFloatMisc            0      0.00%     67.65% # Class of executed instruction. (Count)
system.cpu1.exec_context.thread_0.statExecutedInstType::SimdFloatMult            0      0.00%     67.65% # Class of executed instruction. (Count)
system.cpu1.exec_context.thread_0.statExecutedInstType::SimdFloatMultAcc            0      0.00%     67.65% # Class of executed instruction. (Count)
system.cpu1.exec_context.thread_0.statExecutedInstType::SimdFloatSqrt            0      0.00%     67.65% # Class of executed instruction. (Count)
system.cpu1.exec_context.thread_0.statExecutedInstType::SimdReduceAdd            0      0.00%     67.65% # Class of executed instruction. (Count)
system.cpu1.exec_context.thread_0.statExecutedInstType::SimdReduceAlu            0      0.00%     67.65% # Class of executed instruction. (Count)
system.cpu1.exec_context.thread_0.statExecutedInstType::SimdReduceCmp            0      0.00%     67.65% # Class of executed instruction. (Count)
system.cpu1.exec_context.thread_0.statExecutedInstType::SimdFloatReduceAdd            0      0.00%     67.65% # Class of executed instruction. (Count)
system.cpu1.exec_context.thread_0.statExecutedInstType::SimdFloatReduceCmp            0      0.00%     67.65% # Class of executed instruction. (Count)
system.cpu1.exec_context.thread_0.statExecutedInstType::SimdAes            0      0.00%     67.65% # Class of executed instruction. (Count)
system.cpu1.exec_context.thread_0.statExecutedInstType::SimdAesMix            0      0.00%     67.65% # Class of executed instruction. (Count)
system.cpu1.exec_context.thread_0.statExecutedInstType::SimdSha1Hash            0      0.00%     67.65% # Class of executed instruction. (Count)
system.cpu1.exec_context.thread_0.statExecutedInstType::SimdSha1Hash2            0      0.00%     67.65% # Class of executed instruction. (Count)
system.cpu1.exec_context.thread_0.statExecutedInstType::SimdSha256Hash            0      0.00%     67.65% # Class of executed instruction. (Count)
system.cpu1.exec_context.thread_0.statExecutedInstType::SimdSha256Hash2            0      0.00%     67.65% # Class of executed instruction. (Count)
system.cpu1.exec_context.thread_0.statExecutedInstType::SimdShaSigma2            0      0.00%     67.65% # Class of executed instruction. (Count)
system.cpu1.exec_context.thread_0.statExecutedInstType::SimdShaSigma3            0      0.00%     67.65% # Class of executed instruction. (Count)
system.cpu1.exec_context.thread_0.statExecutedInstType::SimdPredAlu            0      0.00%     67.65% # Class of executed instruction. (Count)
system.cpu1.exec_context.thread_0.statExecutedInstType::MemRead       102167     18.41%     86.06% # Class of executed instruction. (Count)
system.cpu1.exec_context.thread_0.statExecutedInstType::MemWrite        77385     13.94%    100.00% # Class of executed instruction. (Count)
system.cpu1.exec_context.thread_0.statExecutedInstType::FloatMemRead            0      0.00%    100.00% # Class of executed instruction. (Count)
system.cpu1.exec_context.thread_0.statExecutedInstType::FloatMemWrite            0      0.00%    100.00% # Class of executed instruction. (Count)
system.cpu1.exec_context.thread_0.statExecutedInstType::IprAccess            0      0.00%    100.00% # Class of executed instruction. (Count)
system.cpu1.exec_context.thread_0.statExecutedInstType::InstPrefetch            0      0.00%    100.00% # Class of executed instruction. (Count)
system.cpu1.exec_context.thread_0.statExecutedInstType::total       555037                       # Class of executed instruction. (Count)
system.cpu1.mmu.alignFaults                         0                       # Number of MMU faults due to alignment restrictions (Count)
system.cpu1.mmu.prefetchFaults                     11                       # Number of MMU faults due to prefetch (Count)
system.cpu1.mmu.domainFaults                        0                       # Number of MMU faults due to domain restrictions (Count)
system.cpu1.mmu.permsFaults                         5                       # Number of MMU faults due to permissions restrictions (Count)
system.cpu1.mmu.dtb.readHits                   102506                       # Read hits (Count)
system.cpu1.mmu.dtb.readMisses                    165                       # Read misses (Count)
system.cpu1.mmu.dtb.writeHits                   77362                       # Write hits (Count)
system.cpu1.mmu.dtb.writeMisses                    45                       # Write misses (Count)
system.cpu1.mmu.dtb.inserts                       170                       # Number of times an entry is inserted into the TLB (Count)
system.cpu1.mmu.dtb.flushTlb                        0                       # Number of times complete TLB was flushed (Count)
system.cpu1.mmu.dtb.flushTlbMva                     0                       # Number of times TLB was flushed by MVA (Count)
system.cpu1.mmu.dtb.flushTlbMvaAsid               126                       # Number of times TLB was flushed by MVA & ASID (Count)
system.cpu1.mmu.dtb.flushTlbAsid                    6                       # Number of times TLB was flushed by ASID (Count)
system.cpu1.mmu.dtb.flushedEntries                  5                       # Number of entries that have been flushed from TLB (Count)
system.cpu1.mmu.dtb.readAccesses               102671                       # Read accesses (Count)
system.cpu1.mmu.dtb.writeAccesses               77407                       # Write accesses (Count)
system.cpu1.mmu.dtb.hits                       179868                       # Total TLB (inst and data) hits (Count)
system.cpu1.mmu.dtb.misses                        210                       # Total TLB (inst and data) misses (Count)
system.cpu1.mmu.dtb.accesses                   180078                       # Total TLB (inst and data) accesses (Count)
system.cpu1.mmu.dtb_walker.walks                  192                       # Table walker walks requested (Count)
system.cpu1.mmu.dtb_walker.walksLongDescriptor          192                       # Table walker walks initiated with long descriptors (Count)
system.cpu1.mmu.dtb_walker.walkWaitTime::samples          192                       # Table walker wait (enqueue to first request) latency (Tick)
system.cpu1.mmu.dtb_walker.walkWaitTime::0          192    100.00%    100.00% # Table walker wait (enqueue to first request) latency (Tick)
system.cpu1.mmu.dtb_walker.walkWaitTime::total          192                       # Table walker wait (enqueue to first request) latency (Tick)
system.cpu1.mmu.dtb_walker.pageSizes::4KiB          137     84.05%     84.05% # Table walker page sizes translated (Count)
system.cpu1.mmu.dtb_walker.pageSizes::2MiB           26     15.95%    100.00% # Table walker page sizes translated (Count)
system.cpu1.mmu.dtb_walker.pageSizes::total          163                       # Table walker page sizes translated (Count)
system.cpu1.mmu.dtb_walker.requestOrigin_Requested::Data          192                       # Table walker requests started/completed, data/inst (Count)
system.cpu1.mmu.dtb_walker.requestOrigin_Requested::Inst            0                       # Table walker requests started/completed, data/inst (Count)
system.cpu1.mmu.dtb_walker.requestOrigin_Requested::total          192                       # Table walker requests started/completed, data/inst (Count)
system.cpu1.mmu.dtb_walker.requestOrigin_Completed::Data          163                       # Table walker requests started/completed, data/inst (Count)
system.cpu1.mmu.dtb_walker.requestOrigin_Completed::Inst            0                       # Table walker requests started/completed, data/inst (Count)
system.cpu1.mmu.dtb_walker.requestOrigin_Completed::total          163                       # Table walker requests started/completed, data/inst (Count)
system.cpu1.mmu.dtb_walker.requestOrigin::total          355                       # Table walker requests started/completed, data/inst (Count)
system.cpu1.mmu.dtb_walker.power_state.pwrStateResidencyTicks::UNDEFINED 585264852500                       # Cumulative time (in ticks) in various power states (Tick)
system.cpu1.mmu.itb.instHits                   471416                       # Inst hits (Count)
system.cpu1.mmu.itb.instMisses                    516                       # Inst misses (Count)
system.cpu1.mmu.itb.inserts                       496                       # Number of times an entry is inserted into the TLB (Count)
system.cpu1.mmu.itb.flushTlb                        0                       # Number of times complete TLB was flushed (Count)
system.cpu1.mmu.itb.flushTlbMva                     0                       # Number of times TLB was flushed by MVA (Count)
system.cpu1.mmu.itb.flushTlbMvaAsid               126                       # Number of times TLB was flushed by MVA & ASID (Count)
system.cpu1.mmu.itb.flushTlbAsid                    6                       # Number of times TLB was flushed by ASID (Count)
system.cpu1.mmu.itb.flushedEntries                  0                       # Number of entries that have been flushed from TLB (Count)
system.cpu1.mmu.itb.instAccesses               471932                       # Inst accesses (Count)
system.cpu1.mmu.itb.hits                       471416                       # Total TLB (inst and data) hits (Count)
system.cpu1.mmu.itb.misses                        516                       # Total TLB (inst and data) misses (Count)
system.cpu1.mmu.itb.accesses                   471932                       # Total TLB (inst and data) accesses (Count)
system.cpu1.mmu.itb_walker.walks                  337                       # Table walker walks requested (Count)
system.cpu1.mmu.itb_walker.walksLongDescriptor          337                       # Table walker walks initiated with long descriptors (Count)
system.cpu1.mmu.itb_walker.walkWaitTime::samples          337                       # Table walker wait (enqueue to first request) latency (Tick)
system.cpu1.mmu.itb_walker.walkWaitTime::0          337    100.00%    100.00% # Table walker wait (enqueue to first request) latency (Tick)
system.cpu1.mmu.itb_walker.walkWaitTime::total          337                       # Table walker wait (enqueue to first request) latency (Tick)
system.cpu1.mmu.itb_walker.pageSizes::4KiB          315     99.37%     99.37% # Table walker page sizes translated (Count)
system.cpu1.mmu.itb_walker.pageSizes::2MiB            2      0.63%    100.00% # Table walker page sizes translated (Count)
system.cpu1.mmu.itb_walker.pageSizes::total          317                       # Table walker page sizes translated (Count)
system.cpu1.mmu.itb_walker.requestOrigin_Requested::Data            0                       # Table walker requests started/completed, data/inst (Count)
system.cpu1.mmu.itb_walker.requestOrigin_Requested::Inst          337                       # Table walker requests started/completed, data/inst (Count)
system.cpu1.mmu.itb_walker.requestOrigin_Requested::total          337                       # Table walker requests started/completed, data/inst (Count)
system.cpu1.mmu.itb_walker.requestOrigin_Completed::Data            0                       # Table walker requests started/completed, data/inst (Count)
system.cpu1.mmu.itb_walker.requestOrigin_Completed::Inst          317                       # Table walker requests started/completed, data/inst (Count)
system.cpu1.mmu.itb_walker.requestOrigin_Completed::total          317                       # Table walker requests started/completed, data/inst (Count)
system.cpu1.mmu.itb_walker.requestOrigin::total          654                       # Table walker requests started/completed, data/inst (Count)
system.cpu1.mmu.itb_walker.power_state.pwrStateResidencyTicks::UNDEFINED 585264852500                       # Cumulative time (in ticks) in various power states (Tick)
system.cpu1.mmu.l2_shared.partialHits             469                       # partial translation hits (Count)
system.cpu1.mmu.l2_shared.instHits                504                       # Inst hits (Count)
system.cpu1.mmu.l2_shared.instMisses               12                       # Inst misses (Count)
system.cpu1.mmu.l2_shared.readHits                121                       # Read hits (Count)
system.cpu1.mmu.l2_shared.readMisses               44                       # Read misses (Count)
system.cpu1.mmu.l2_shared.writeHits                30                       # Write hits (Count)
system.cpu1.mmu.l2_shared.writeMisses              15                       # Write misses (Count)
system.cpu1.mmu.l2_shared.inserts                 516                       # Number of times an entry is inserted into the TLB (Count)
system.cpu1.mmu.l2_shared.flushTlb                  0                       # Number of times complete TLB was flushed (Count)
system.cpu1.mmu.l2_shared.flushTlbMva               0                       # Number of times TLB was flushed by MVA (Count)
system.cpu1.mmu.l2_shared.flushTlbMvaAsid          126                       # Number of times TLB was flushed by MVA & ASID (Count)
system.cpu1.mmu.l2_shared.flushTlbAsid              6                       # Number of times TLB was flushed by ASID (Count)
system.cpu1.mmu.l2_shared.flushedEntries           26                       # Number of entries that have been flushed from TLB (Count)
system.cpu1.mmu.l2_shared.readAccesses            165                       # Read accesses (Count)
system.cpu1.mmu.l2_shared.writeAccesses            45                       # Write accesses (Count)
system.cpu1.mmu.l2_shared.instAccesses            516                       # Inst accesses (Count)
system.cpu1.mmu.l2_shared.hits                    655                       # Total TLB (inst and data) hits (Count)
system.cpu1.mmu.l2_shared.misses                   71                       # Total TLB (inst and data) misses (Count)
system.cpu1.mmu.l2_shared.accesses                726                       # Total TLB (inst and data) accesses (Count)
system.cpu1.mmu.stage2_dtb.readHits                 0                       # Read hits (Count)
system.cpu1.mmu.stage2_dtb.readMisses               0                       # Read misses (Count)
system.cpu1.mmu.stage2_dtb.writeHits                0                       # Write hits (Count)
system.cpu1.mmu.stage2_dtb.writeMisses              0                       # Write misses (Count)
system.cpu1.mmu.stage2_dtb.inserts                  0                       # Number of times an entry is inserted into the TLB (Count)
system.cpu1.mmu.stage2_dtb.flushTlb                 0                       # Number of times complete TLB was flushed (Count)
system.cpu1.mmu.stage2_dtb.flushTlbMva              0                       # Number of times TLB was flushed by MVA (Count)
system.cpu1.mmu.stage2_dtb.flushTlbMvaAsid            0                       # Number of times TLB was flushed by MVA & ASID (Count)
system.cpu1.mmu.stage2_dtb.flushTlbAsid             0                       # Number of times TLB was flushed by ASID (Count)
system.cpu1.mmu.stage2_dtb.flushedEntries            0                       # Number of entries that have been flushed from TLB (Count)
system.cpu1.mmu.stage2_dtb.readAccesses             0                       # Read accesses (Count)
system.cpu1.mmu.stage2_dtb.writeAccesses            0                       # Write accesses (Count)
system.cpu1.mmu.stage2_dtb.hits                     0                       # Total TLB (inst and data) hits (Count)
system.cpu1.mmu.stage2_dtb.misses                   0                       # Total TLB (inst and data) misses (Count)
system.cpu1.mmu.stage2_dtb.accesses                 0                       # Total TLB (inst and data) accesses (Count)
system.cpu1.mmu.stage2_dtb_walker.walks             0                       # Table walker walks requested (Count)
system.cpu1.mmu.stage2_dtb_walker.requestOrigin_Requested::Data            0                       # Table walker requests started/completed, data/inst (Count)
system.cpu1.mmu.stage2_dtb_walker.requestOrigin_Requested::Inst            0                       # Table walker requests started/completed, data/inst (Count)
system.cpu1.mmu.stage2_dtb_walker.requestOrigin_Requested::total            0                       # Table walker requests started/completed, data/inst (Count)
system.cpu1.mmu.stage2_dtb_walker.requestOrigin_Completed::Data            0                       # Table walker requests started/completed, data/inst (Count)
system.cpu1.mmu.stage2_dtb_walker.requestOrigin_Completed::Inst            0                       # Table walker requests started/completed, data/inst (Count)
system.cpu1.mmu.stage2_dtb_walker.requestOrigin_Completed::total            0                       # Table walker requests started/completed, data/inst (Count)
system.cpu1.mmu.stage2_dtb_walker.requestOrigin::total            0                       # Table walker requests started/completed, data/inst (Count)
system.cpu1.mmu.stage2_dtb_walker.power_state.pwrStateResidencyTicks::UNDEFINED 585264852500                       # Cumulative time (in ticks) in various power states (Tick)
system.cpu1.mmu.stage2_itb.instHits                 0                       # Inst hits (Count)
system.cpu1.mmu.stage2_itb.instMisses               0                       # Inst misses (Count)
system.cpu1.mmu.stage2_itb.inserts                  0                       # Number of times an entry is inserted into the TLB (Count)
system.cpu1.mmu.stage2_itb.flushTlb                 0                       # Number of times complete TLB was flushed (Count)
system.cpu1.mmu.stage2_itb.flushTlbMva              0                       # Number of times TLB was flushed by MVA (Count)
system.cpu1.mmu.stage2_itb.flushTlbMvaAsid            0                       # Number of times TLB was flushed by MVA & ASID (Count)
system.cpu1.mmu.stage2_itb.flushTlbAsid             0                       # Number of times TLB was flushed by ASID (Count)
system.cpu1.mmu.stage2_itb.flushedEntries            0                       # Number of entries that have been flushed from TLB (Count)
system.cpu1.mmu.stage2_itb.instAccesses             0                       # Inst accesses (Count)
system.cpu1.mmu.stage2_itb.hits                     0                       # Total TLB (inst and data) hits (Count)
system.cpu1.mmu.stage2_itb.misses                   0                       # Total TLB (inst and data) misses (Count)
system.cpu1.mmu.stage2_itb.accesses                 0                       # Total TLB (inst and data) accesses (Count)
system.cpu1.mmu.stage2_itb_walker.walks             0                       # Table walker walks requested (Count)
system.cpu1.mmu.stage2_itb_walker.requestOrigin_Requested::Data            0                       # Table walker requests started/completed, data/inst (Count)
system.cpu1.mmu.stage2_itb_walker.requestOrigin_Requested::Inst            0                       # Table walker requests started/completed, data/inst (Count)
system.cpu1.mmu.stage2_itb_walker.requestOrigin_Requested::total            0                       # Table walker requests started/completed, data/inst (Count)
system.cpu1.mmu.stage2_itb_walker.requestOrigin_Completed::Data            0                       # Table walker requests started/completed, data/inst (Count)
system.cpu1.mmu.stage2_itb_walker.requestOrigin_Completed::Inst            0                       # Table walker requests started/completed, data/inst (Count)
system.cpu1.mmu.stage2_itb_walker.requestOrigin_Completed::total            0                       # Table walker requests started/completed, data/inst (Count)
system.cpu1.mmu.stage2_itb_walker.requestOrigin::total            0                       # Table walker requests started/completed, data/inst (Count)
system.cpu1.mmu.stage2_itb_walker.power_state.pwrStateResidencyTicks::UNDEFINED 585264852500                       # Cumulative time (in ticks) in various power states (Tick)
system.cpu1.power_state.numTransitions            117                       # Number of power state transitions (Count)
system.cpu1.power_state.ticksClkGated::samples           59                       # Distribution of time spent in the clock gated state (Tick)
system.cpu1.power_state.ticksClkGated::mean 153652411.050847                       # Distribution of time spent in the clock gated state (Tick)
system.cpu1.power_state.ticksClkGated::stdev 29069435.305380                       # Distribution of time spent in the clock gated state (Tick)
system.cpu1.power_state.ticksClkGated::1000-5e+10           59    100.00%    100.00% # Distribution of time spent in the clock gated state (Tick)
system.cpu1.power_state.ticksClkGated::min_value      6745436                       # Distribution of time spent in the clock gated state (Tick)
system.cpu1.power_state.ticksClkGated::max_value    162416156                       # Distribution of time spent in the clock gated state (Tick)
system.cpu1.power_state.ticksClkGated::total           59                       # Distribution of time spent in the clock gated state (Tick)
system.cpu1.power_state.pwrStateResidencyTicks::ON    277513248                       # Cumulative time (in ticks) in various power states (Tick)
system.cpu1.power_state.pwrStateResidencyTicks::CLK_GATED   9065492252                       # Cumulative time (in ticks) in various power states (Tick)
system.cpu1.thread_0.numInsts                       0                       # Number of Instructions committed (Count)
system.cpu1.thread_0.numOps                         0                       # Number of Ops committed (Count)
system.cpu1.thread_0.numMemRefs                     0                       # Number of Memory References (Count)
system.cpu2.numCycles                        18554546                       # Number of cpu cycles simulated (Cycle)
system.cpu2.numWorkItemsStarted                     0                       # Number of work items this cpu started (Count)
system.cpu2.numWorkItemsCompleted                   0                       # Number of work items this cpu completed (Count)
system.cpu2.exec_context.thread_0.numInsts        48443                       # Number of instructions committed (Count)
system.cpu2.exec_context.thread_0.numOps        61173                       # Number of ops (including micro ops) committed (Count)
system.cpu2.exec_context.thread_0.numIntAluAccesses        59407                       # Number of integer alu accesses (Count)
system.cpu2.exec_context.thread_0.numFpAluAccesses            0                       # Number of float alu accesses (Count)
system.cpu2.exec_context.thread_0.numVecAluAccesses            0                       # Number of vector alu accesses (Count)
system.cpu2.exec_context.thread_0.numCallsReturns         6212                       # Number of times a function call or return occured (Count)
system.cpu2.exec_context.thread_0.numCondCtrlInsts         3742                       # Number of instructions that are conditional controls (Count)
system.cpu2.exec_context.thread_0.numIntInsts        59407                       # Number of integer instructions (Count)
system.cpu2.exec_context.thread_0.numFpInsts            0                       # Number of float instructions (Count)
system.cpu2.exec_context.thread_0.numVecInsts            0                       # Number of vector instructions (Count)
system.cpu2.exec_context.thread_0.numIntRegReads        62461                       # Number of times the integer registers were read (Count)
system.cpu2.exec_context.thread_0.numIntRegWrites        46310                       # Number of times the integer registers were written (Count)
system.cpu2.exec_context.thread_0.numFpRegReads            0                       # Number of times the floating registers were read (Count)
system.cpu2.exec_context.thread_0.numFpRegWrites            0                       # Number of times the floating registers were written (Count)
system.cpu2.exec_context.thread_0.numVecRegReads            0                       # Number of times the vector registers were read (Count)
system.cpu2.exec_context.thread_0.numVecRegWrites            0                       # Number of times the vector registers were written (Count)
system.cpu2.exec_context.thread_0.numVecPredRegReads            0                       # Number of times the predicate registers were read (Count)
system.cpu2.exec_context.thread_0.numVecPredRegWrites            0                       # Number of times the predicate registers were written (Count)
system.cpu2.exec_context.thread_0.numCCRegReads         4215                       # Number of times the CC registers were read (Count)
system.cpu2.exec_context.thread_0.numCCRegWrites         4026                       # Number of times the CC registers were written (Count)
system.cpu2.exec_context.thread_0.numMiscRegReads        11348                       # Number of times the Misc registers were read (Count)
system.cpu2.exec_context.thread_0.numMiscRegWrites          654                       # Number of times the Misc registers were written (Count)
system.cpu2.exec_context.thread_0.numMemRefs        19890                       # Number of memory refs (Count)
system.cpu2.exec_context.thread_0.numLoadInsts        10651                       # Number of load instructions (Count)
system.cpu2.exec_context.thread_0.numStoreInsts         9239                       # Number of store instructions (Count)
system.cpu2.exec_context.thread_0.numIdleCycles 18493350.837284                       # Number of idle cycles (Cycle)
system.cpu2.exec_context.thread_0.numBusyCycles 61195.162716                       # Number of busy cycles (Cycle)
system.cpu2.exec_context.thread_0.notIdleFraction     0.003298                       # Percentage of non-idle cycles (Ratio)
system.cpu2.exec_context.thread_0.idleFraction     0.996702                       # Percentage of idle cycles (Ratio)
system.cpu2.exec_context.thread_0.numBranches        10037                       # Number of branches fetched (Count)
system.cpu2.exec_context.thread_0.statExecutedInstType::No_OpClass            0      0.00%      0.00% # Class of executed instruction. (Count)
system.cpu2.exec_context.thread_0.statExecutedInstType::IntAlu        41219     67.38%     67.38% # Class of executed instruction. (Count)
system.cpu2.exec_context.thread_0.statExecutedInstType::IntMult           48      0.08%     67.46% # Class of executed instruction. (Count)
system.cpu2.exec_context.thread_0.statExecutedInstType::IntDiv           16      0.03%     67.49% # Class of executed instruction. (Count)
system.cpu2.exec_context.thread_0.statExecutedInstType::FloatAdd            0      0.00%     67.49% # Class of executed instruction. (Count)
system.cpu2.exec_context.thread_0.statExecutedInstType::FloatCmp            0      0.00%     67.49% # Class of executed instruction. (Count)
system.cpu2.exec_context.thread_0.statExecutedInstType::FloatCvt            0      0.00%     67.49% # Class of executed instruction. (Count)
system.cpu2.exec_context.thread_0.statExecutedInstType::FloatMult            0      0.00%     67.49% # Class of executed instruction. (Count)
system.cpu2.exec_context.thread_0.statExecutedInstType::FloatMultAcc            0      0.00%     67.49% # Class of executed instruction. (Count)
system.cpu2.exec_context.thread_0.statExecutedInstType::FloatDiv            0      0.00%     67.49% # Class of executed instruction. (Count)
system.cpu2.exec_context.thread_0.statExecutedInstType::FloatMisc            0      0.00%     67.49% # Class of executed instruction. (Count)
system.cpu2.exec_context.thread_0.statExecutedInstType::FloatSqrt            0      0.00%     67.49% # Class of executed instruction. (Count)
system.cpu2.exec_context.thread_0.statExecutedInstType::SimdAdd            0      0.00%     67.49% # Class of executed instruction. (Count)
system.cpu2.exec_context.thread_0.statExecutedInstType::SimdAddAcc            0      0.00%     67.49% # Class of executed instruction. (Count)
system.cpu2.exec_context.thread_0.statExecutedInstType::SimdAlu            0      0.00%     67.49% # Class of executed instruction. (Count)
system.cpu2.exec_context.thread_0.statExecutedInstType::SimdCmp            0      0.00%     67.49% # Class of executed instruction. (Count)
system.cpu2.exec_context.thread_0.statExecutedInstType::SimdCvt            0      0.00%     67.49% # Class of executed instruction. (Count)
system.cpu2.exec_context.thread_0.statExecutedInstType::SimdMisc            0      0.00%     67.49% # Class of executed instruction. (Count)
system.cpu2.exec_context.thread_0.statExecutedInstType::SimdMult            0      0.00%     67.49% # Class of executed instruction. (Count)
system.cpu2.exec_context.thread_0.statExecutedInstType::SimdMultAcc            0      0.00%     67.49% # Class of executed instruction. (Count)
system.cpu2.exec_context.thread_0.statExecutedInstType::SimdShift            0      0.00%     67.49% # Class of executed instruction. (Count)
system.cpu2.exec_context.thread_0.statExecutedInstType::SimdShiftAcc            0      0.00%     67.49% # Class of executed instruction. (Count)
system.cpu2.exec_context.thread_0.statExecutedInstType::SimdDiv            0      0.00%     67.49% # Class of executed instruction. (Count)
system.cpu2.exec_context.thread_0.statExecutedInstType::SimdSqrt            0      0.00%     67.49% # Class of executed instruction. (Count)
system.cpu2.exec_context.thread_0.statExecutedInstType::SimdFloatAdd            0      0.00%     67.49% # Class of executed instruction. (Count)
system.cpu2.exec_context.thread_0.statExecutedInstType::SimdFloatAlu            0      0.00%     67.49% # Class of executed instruction. (Count)
system.cpu2.exec_context.thread_0.statExecutedInstType::SimdFloatCmp            0      0.00%     67.49% # Class of executed instruction. (Count)
system.cpu2.exec_context.thread_0.statExecutedInstType::SimdFloatCvt            0      0.00%     67.49% # Class of executed instruction. (Count)
system.cpu2.exec_context.thread_0.statExecutedInstType::SimdFloatDiv            0      0.00%     67.49% # Class of executed instruction. (Count)
system.cpu2.exec_context.thread_0.statExecutedInstType::SimdFloatMisc            0      0.00%     67.49% # Class of executed instruction. (Count)
system.cpu2.exec_context.thread_0.statExecutedInstType::SimdFloatMult            0      0.00%     67.49% # Class of executed instruction. (Count)
system.cpu2.exec_context.thread_0.statExecutedInstType::SimdFloatMultAcc            0      0.00%     67.49% # Class of executed instruction. (Count)
system.cpu2.exec_context.thread_0.statExecutedInstType::SimdFloatSqrt            0      0.00%     67.49% # Class of executed instruction. (Count)
system.cpu2.exec_context.thread_0.statExecutedInstType::SimdReduceAdd            0      0.00%     67.49% # Class of executed instruction. (Count)
system.cpu2.exec_context.thread_0.statExecutedInstType::SimdReduceAlu            0      0.00%     67.49% # Class of executed instruction. (Count)
system.cpu2.exec_context.thread_0.statExecutedInstType::SimdReduceCmp            0      0.00%     67.49% # Class of executed instruction. (Count)
system.cpu2.exec_context.thread_0.statExecutedInstType::SimdFloatReduceAdd            0      0.00%     67.49% # Class of executed instruction. (Count)
system.cpu2.exec_context.thread_0.statExecutedInstType::SimdFloatReduceCmp            0      0.00%     67.49% # Class of executed instruction. (Count)
system.cpu2.exec_context.thread_0.statExecutedInstType::SimdAes            0      0.00%     67.49% # Class of executed instruction. (Count)
system.cpu2.exec_context.thread_0.statExecutedInstType::SimdAesMix            0      0.00%     67.49% # Class of executed instruction. (Count)
system.cpu2.exec_context.thread_0.statExecutedInstType::SimdSha1Hash            0      0.00%     67.49% # Class of executed instruction. (Count)
system.cpu2.exec_context.thread_0.statExecutedInstType::SimdSha1Hash2            0      0.00%     67.49% # Class of executed instruction. (Count)
system.cpu2.exec_context.thread_0.statExecutedInstType::SimdSha256Hash            0      0.00%     67.49% # Class of executed instruction. (Count)
system.cpu2.exec_context.thread_0.statExecutedInstType::SimdSha256Hash2            0      0.00%     67.49% # Class of executed instruction. (Count)
system.cpu2.exec_context.thread_0.statExecutedInstType::SimdShaSigma2            0      0.00%     67.49% # Class of executed instruction. (Count)
system.cpu2.exec_context.thread_0.statExecutedInstType::SimdShaSigma3            0      0.00%     67.49% # Class of executed instruction. (Count)
system.cpu2.exec_context.thread_0.statExecutedInstType::SimdPredAlu            0      0.00%     67.49% # Class of executed instruction. (Count)
system.cpu2.exec_context.thread_0.statExecutedInstType::MemRead        10651     17.41%     84.90% # Class of executed instruction. (Count)
system.cpu2.exec_context.thread_0.statExecutedInstType::MemWrite         9239     15.10%    100.00% # Class of executed instruction. (Count)
system.cpu2.exec_context.thread_0.statExecutedInstType::FloatMemRead            0      0.00%    100.00% # Class of executed instruction. (Count)
system.cpu2.exec_context.thread_0.statExecutedInstType::FloatMemWrite            0      0.00%    100.00% # Class of executed instruction. (Count)
system.cpu2.exec_context.thread_0.statExecutedInstType::IprAccess            0      0.00%    100.00% # Class of executed instruction. (Count)
system.cpu2.exec_context.thread_0.statExecutedInstType::InstPrefetch            0      0.00%    100.00% # Class of executed instruction. (Count)
system.cpu2.exec_context.thread_0.statExecutedInstType::total        61173                       # Class of executed instruction. (Count)
system.cpu2.mmu.alignFaults                         0                       # Number of MMU faults due to alignment restrictions (Count)
system.cpu2.mmu.prefetchFaults                      0                       # Number of MMU faults due to prefetch (Count)
system.cpu2.mmu.domainFaults                        0                       # Number of MMU faults due to domain restrictions (Count)
system.cpu2.mmu.permsFaults                         0                       # Number of MMU faults due to permissions restrictions (Count)
system.cpu2.mmu.dtb.readHits                    10652                       # Read hits (Count)
system.cpu2.mmu.dtb.readMisses                      0                       # Read misses (Count)
system.cpu2.mmu.dtb.writeHits                    9239                       # Write hits (Count)
system.cpu2.mmu.dtb.writeMisses                     0                       # Write misses (Count)
system.cpu2.mmu.dtb.inserts                         0                       # Number of times an entry is inserted into the TLB (Count)
system.cpu2.mmu.dtb.flushTlb                        0                       # Number of times complete TLB was flushed (Count)
system.cpu2.mmu.dtb.flushTlbMva                     0                       # Number of times TLB was flushed by MVA (Count)
system.cpu2.mmu.dtb.flushTlbMvaAsid               126                       # Number of times TLB was flushed by MVA & ASID (Count)
system.cpu2.mmu.dtb.flushTlbAsid                    6                       # Number of times TLB was flushed by ASID (Count)
system.cpu2.mmu.dtb.flushedEntries                  0                       # Number of entries that have been flushed from TLB (Count)
system.cpu2.mmu.dtb.readAccesses                10652                       # Read accesses (Count)
system.cpu2.mmu.dtb.writeAccesses                9239                       # Write accesses (Count)
system.cpu2.mmu.dtb.hits                        19891                       # Total TLB (inst and data) hits (Count)
system.cpu2.mmu.dtb.misses                          0                       # Total TLB (inst and data) misses (Count)
system.cpu2.mmu.dtb.accesses                    19891                       # Total TLB (inst and data) accesses (Count)
system.cpu2.mmu.dtb_walker.walks                    0                       # Table walker walks requested (Count)
system.cpu2.mmu.dtb_walker.requestOrigin_Requested::Data            0                       # Table walker requests started/completed, data/inst (Count)
system.cpu2.mmu.dtb_walker.requestOrigin_Requested::Inst            0                       # Table walker requests started/completed, data/inst (Count)
system.cpu2.mmu.dtb_walker.requestOrigin_Requested::total            0                       # Table walker requests started/completed, data/inst (Count)
system.cpu2.mmu.dtb_walker.requestOrigin_Completed::Data            0                       # Table walker requests started/completed, data/inst (Count)
system.cpu2.mmu.dtb_walker.requestOrigin_Completed::Inst            0                       # Table walker requests started/completed, data/inst (Count)
system.cpu2.mmu.dtb_walker.requestOrigin_Completed::total            0                       # Table walker requests started/completed, data/inst (Count)
system.cpu2.mmu.dtb_walker.requestOrigin::total            0                       # Table walker requests started/completed, data/inst (Count)
system.cpu2.mmu.dtb_walker.power_state.pwrStateResidencyTicks::UNDEFINED 585264852500                       # Cumulative time (in ticks) in various power states (Tick)
system.cpu2.mmu.itb.instHits                    48427                       # Inst hits (Count)
system.cpu2.mmu.itb.instMisses                     16                       # Inst misses (Count)
system.cpu2.mmu.itb.inserts                        16                       # Number of times an entry is inserted into the TLB (Count)
system.cpu2.mmu.itb.flushTlb                        0                       # Number of times complete TLB was flushed (Count)
system.cpu2.mmu.itb.flushTlbMva                     0                       # Number of times TLB was flushed by MVA (Count)
system.cpu2.mmu.itb.flushTlbMvaAsid               126                       # Number of times TLB was flushed by MVA & ASID (Count)
system.cpu2.mmu.itb.flushTlbAsid                    6                       # Number of times TLB was flushed by ASID (Count)
system.cpu2.mmu.itb.flushedEntries                  0                       # Number of entries that have been flushed from TLB (Count)
system.cpu2.mmu.itb.instAccesses                48443                       # Inst accesses (Count)
system.cpu2.mmu.itb.hits                        48427                       # Total TLB (inst and data) hits (Count)
system.cpu2.mmu.itb.misses                         16                       # Total TLB (inst and data) misses (Count)
system.cpu2.mmu.itb.accesses                    48443                       # Total TLB (inst and data) accesses (Count)
system.cpu2.mmu.itb_walker.walks                    0                       # Table walker walks requested (Count)
system.cpu2.mmu.itb_walker.requestOrigin_Requested::Data            0                       # Table walker requests started/completed, data/inst (Count)
system.cpu2.mmu.itb_walker.requestOrigin_Requested::Inst            0                       # Table walker requests started/completed, data/inst (Count)
system.cpu2.mmu.itb_walker.requestOrigin_Requested::total            0                       # Table walker requests started/completed, data/inst (Count)
[...]
system.membus.pktSize_system.cpu2.dcache_port::system.bridge.cpu_side_port           16                       # Cumulative packet size per connected requestor and responder (Byte)
system.membus.pktSize_system.cpu2.dcache_port::system.realview.gic.pio           36                       # Cumulative packet size per connected requestor and responder (Byte)
system.membus.pktSize_system.cpu2.dcache_port::system.mem_ctrls.port       171449                       # Cumulative packet size per connected requestor and responder (Byte)
system.membus.pktSize_system.cpu2.dcache_port::total       171501                       # Cumulative packet size per connected requestor and responder (Byte)
system.membus.pktSize_system.cpu3.icache_port::system.mem_ctrls.port       195220                       # Cumulative packet size per connected requestor and responder (Byte)
system.membus.pktSize_system.cpu3.icache_port::total       195220                       # Cumulative packet size per connected requestor and responder (Byte)
system.membus.pktSize_system.cpu3.dcache_port::system.bridge.cpu_side_port           16                       # Cumulative packet size per connected requestor and responder (Byte)
system.membus.pktSize_system.cpu3.dcache_port::system.realview.gic.pio           36                       # Cumulative packet size per connected requestor and responder (Byte)
system.membus.pktSize_system.cpu3.dcache_port::system.mem_ctrls.port       172620                       # Cumulative packet size per connected requestor and responder (Byte)
system.membus.pktSize_system.cpu3.dcache_port::total       172672                       # Cumulative packet size per connected requestor and responder (Byte)
system.membus.pktSize_system.cpu3.mmu.itb_walker.port::system.mem_ctrls.port           88                       # Cumulative packet size per connected requestor and responder (Byte)
system.membus.pktSize_system.cpu3.mmu.itb_walker.port::total           88                       # Cumulative packet size per connected requestor and responder (Byte)
system.membus.pktSize_system.cpu3.mmu.dtb_walker.port::system.mem_ctrls.port            8                       # Cumulative packet size per connected requestor and responder (Byte)
system.membus.pktSize_system.cpu3.mmu.dtb_walker.port::total            8                       # Cumulative packet size per connected requestor and responder (Byte)
system.membus.pktSize_system.cpu4.icache_port::system.mem_ctrls.port       183024                       # Cumulative packet size per connected requestor and responder (Byte)
system.membus.pktSize_system.cpu4.icache_port::total       183024                       # Cumulative packet size per connected requestor and responder (Byte)
system.membus.pktSize_system.cpu4.dcache_port::system.bridge.cpu_side_port           12                       # Cumulative packet size per connected requestor and responder (Byte)
system.membus.pktSize_system.cpu4.dcache_port::system.realview.gic.pio           36                       # Cumulative packet size per connected requestor and responder (Byte)
system.membus.pktSize_system.cpu4.dcache_port::system.mem_ctrls.port       163405                       # Cumulative packet size per connected requestor and responder (Byte)
system.membus.pktSize_system.cpu4.dcache_port::total       163453                       # Cumulative packet size per connected requestor and responder (Byte)
system.membus.pktSize_system.cpu4.mmu.itb_walker.port::system.mem_ctrls.port           80                       # Cumulative packet size per connected requestor and responder (Byte)
system.membus.pktSize_system.cpu4.mmu.itb_walker.port::total           80                       # Cumulative packet size per connected requestor and responder (Byte)
system.membus.pktSize_system.cpu4.mmu.dtb_walker.port::system.mem_ctrls.port            8                       # Cumulative packet size per connected requestor and responder (Byte)
system.membus.pktSize_system.cpu4.mmu.dtb_walker.port::total            8                       # Cumulative packet size per connected requestor and responder (Byte)
system.membus.pktSize_system.cpu5.icache_port::system.mem_ctrls.port       214604                       # Cumulative packet size per connected requestor and responder (Byte)
system.membus.pktSize_system.cpu5.icache_port::total       214604                       # Cumulative packet size per connected requestor and responder (Byte)
system.membus.pktSize_system.cpu5.dcache_port::system.bridge.cpu_side_port           16                       # Cumulative packet size per connected requestor and responder (Byte)
system.membus.pktSize_system.cpu5.dcache_port::system.realview.gic.pio           36                       # Cumulative packet size per connected requestor and responder (Byte)
system.membus.pktSize_system.cpu5.dcache_port::system.mem_ctrls.port       190126                       # Cumulative packet size per connected requestor and responder (Byte)
system.membus.pktSize_system.cpu5.dcache_port::total       190178                       # Cumulative packet size per connected requestor and responder (Byte)
system.membus.pktSize_system.cpu6.icache_port::system.mem_ctrls.port     56649080                       # Cumulative packet size per connected requestor and responder (Byte)
system.membus.pktSize_system.cpu6.icache_port::total     56649080                       # Cumulative packet size per connected requestor and responder (Byte)
system.membus.pktSize_system.cpu6.dcache_port::system.bridge.cpu_side_port          104                       # Cumulative packet size per connected requestor and responder (Byte)
system.membus.pktSize_system.cpu6.dcache_port::system.realview.gic.pio          104                       # Cumulative packet size per connected requestor and responder (Byte)
system.membus.pktSize_system.cpu6.dcache_port::system.mem_ctrls.port     10521070                       # Cumulative packet size per connected requestor and responder (Byte)
system.membus.pktSize_system.cpu6.dcache_port::total     10521278                       # Cumulative packet size per connected requestor and responder (Byte)
system.membus.pktSize_system.cpu6.mmu.itb_walker.port::system.mem_ctrls.port         4096                       # Cumulative packet size per connected requestor and responder (Byte)
system.membus.pktSize_system.cpu6.mmu.itb_walker.port::total         4096                       # Cumulative packet size per connected requestor and responder (Byte)
system.membus.pktSize_system.cpu6.mmu.dtb_walker.port::system.mem_ctrls.port         3000                       # Cumulative packet size per connected requestor and responder (Byte)
system.membus.pktSize_system.cpu6.mmu.dtb_walker.port::total         3000                       # Cumulative packet size per connected requestor and responder (Byte)
system.membus.pktSize_system.cpu7.icache_port::system.mem_ctrls.port     70146804                       # Cumulative packet size per connected requestor and responder (Byte)
system.membus.pktSize_system.cpu7.icache_port::total     70146804                       # Cumulative packet size per connected requestor and responder (Byte)
system.membus.pktSize_system.cpu7.dcache_port::system.bridge.cpu_side_port          319                       # Cumulative packet size per connected requestor and responder (Byte)
system.membus.pktSize_system.cpu7.dcache_port::system.realview.gic.pio          148                       # Cumulative packet size per connected requestor and responder (Byte)
system.membus.pktSize_system.cpu7.dcache_port::system.mem_ctrls.port     42976016                       # Cumulative packet size per connected requestor and responder (Byte)
system.membus.pktSize_system.cpu7.dcache_port::total     42976483                       # Cumulative packet size per connected requestor and responder (Byte)
system.membus.pktSize_system.cpu7.mmu.itb_walker.port::system.mem_ctrls.port         4584                       # Cumulative packet size per connected requestor and responder (Byte)
system.membus.pktSize_system.cpu7.mmu.itb_walker.port::total         4584                       # Cumulative packet size per connected requestor and responder (Byte)
system.membus.pktSize_system.cpu7.mmu.dtb_walker.port::system.mem_ctrls.port         3632                       # Cumulative packet size per connected requestor and responder (Byte)
system.membus.pktSize_system.cpu7.mmu.dtb_walker.port::total         3632                       # Cumulative packet size per connected requestor and responder (Byte)
system.membus.pktSize::total                251272943                       # Cumulative packet size per connected requestor and responder (Byte)
system.membus.snoops                                0                       # Total snoops (Count)
system.membus.snoopTraffic                          0                       # Total snoop traffic (Byte)
system.membus.snoopFanout::samples           60297494                       # Request fanout histogram (Count)
system.membus.snoopFanout::mean                     0                       # Request fanout histogram (Count)
system.membus.snoopFanout::stdev                    0                       # Request fanout histogram (Count)
system.membus.snoopFanout::underflows               0      0.00%      0.00% # Request fanout histogram (Count)
system.membus.snoopFanout::0                 60297494    100.00%    100.00% # Request fanout histogram (Count)
system.membus.snoopFanout::1                        0      0.00%    100.00% # Request fanout histogram (Count)
system.membus.snoopFanout::2                        0      0.00%    100.00% # Request fanout histogram (Count)
system.membus.snoopFanout::3                        0      0.00%    100.00% # Request fanout histogram (Count)
system.membus.snoopFanout::4                        0      0.00%    100.00% # Request fanout histogram (Count)
system.membus.snoopFanout::5                        0      0.00%    100.00% # Request fanout histogram (Count)
system.membus.snoopFanout::6                        0      0.00%    100.00% # Request fanout histogram (Count)
system.membus.snoopFanout::7                        0      0.00%    100.00% # Request fanout histogram (Count)
system.membus.snoopFanout::8                        0      0.00%    100.00% # Request fanout histogram (Count)
system.membus.snoopFanout::overflows                0      0.00%    100.00% # Request fanout histogram (Count)
system.membus.snoopFanout::min_value                0                       # Request fanout histogram (Count)
system.membus.snoopFanout::max_value                0                       # Request fanout histogram (Count)
system.membus.snoopFanout::total             60297494                       # Request fanout histogram (Count)
system.membus.badaddr_responder.power_state.pwrStateResidencyTicks::UNDEFINED 585264852500                       # Cumulative time (in ticks) in various power states (Tick)
system.membus.power_state.pwrStateResidencyTicks::UNDEFINED 585264852500                       # Cumulative time (in ticks) in various power states (Tick)
system.membus.snoop_filter.totRequests           7616                       # Total number of requests made to the snoop filter. (Count)
system.membus.snoop_filter.hitSingleRequests            0                       # Number of requests hitting in the snoop filter with a single holder of the requested data. (Count)
system.membus.snoop_filter.hitMultiRequests            0                       # Number of requests hitting in the snoop filter with multiple (>1) holders of the requested data. (Count)
system.membus.snoop_filter.totSnoops                0                       # Total number of snoops made to the snoop filter. (Count)
system.membus.snoop_filter.hitSingleSnoops            0                       # Number of snoops hitting in the snoop filter with a single holder of the requested data. (Count)
system.membus.snoop_filter.hitMultiSnoops            0                       # Number of snoops hitting in the snoop filter with multiple (>1) holders of the requested data. (Count)
system.pci_ide.disks.IdeDisk.dmaReadFullPages            0                       # Number of full page size DMA reads (not PRD). (Count)
system.pci_ide.disks.IdeDisk.dmaReadBytes            0                       # Number of bytes transfered via DMA reads (not PRD). (Byte)
system.pci_ide.disks.IdeDisk.dmaReadTxs             0                       # Number of DMA read transactions (not PRD). (Count)
system.pci_ide.disks.IdeDisk.dmaWriteFullPages          137                       # Number of full page size DMA writes. (Count)
system.pci_ide.disks.IdeDisk.dmaWriteBytes       561152                       # Number of bytes transfered via DMA writes. (Byte)
system.pci_ide.disks.IdeDisk.dmaWriteTxs          137                       # Number of DMA write transactions. (Count)
system.pci_ide.power_state.pwrStateResidencyTicks::UNDEFINED 585264852500                       # Cumulative time (in ticks) in various power states (Tick)
system.realview.bootmem.power_state.pwrStateResidencyTicks::UNDEFINED 585264852500                       # Cumulative time (in ticks) in various power states (Tick)
system.realview.clock24MHz.clock                41667                       # Clock period in ticks (Tick)
system.realview.clock32KHz.clock             31250000                       # Clock period in ticks (Tick)
system.realview.dcc.osc_cpu.clock               16667                       # Clock period in ticks (Tick)
system.realview.dcc.osc_ddr.clock               25000                       # Clock period in ticks (Tick)
system.realview.dcc.osc_hsbm.clock              25000                       # Clock period in ticks (Tick)
system.realview.dcc.osc_pxl.clock               42105                       # Clock period in ticks (Tick)
system.realview.dcc.osc_smb.clock               20000                       # Clock period in ticks (Tick)
system.realview.dcc.osc_sys.clock               16667                       # Clock period in ticks (Tick)
system.realview.el2_watchdog.power_state.pwrStateResidencyTicks::UNDEFINED 585264852500                       # Cumulative time (in ticks) in various power states (Tick)
system.realview.energy_ctrl.power_state.pwrStateResidencyTicks::UNDEFINED 585264852500                       # Cumulative time (in ticks) in various power states (Tick)
system.realview.flash0.power_state.pwrStateResidencyTicks::UNDEFINED 585264852500                       # Cumulative time (in ticks) in various power states (Tick)
system.realview.flash1.power_state.pwrStateResidencyTicks::UNDEFINED 585264852500                       # Cumulative time (in ticks) in various power states (Tick)
system.realview.generic_timer_mem.frames0.power_state.pwrStateResidencyTicks::UNDEFINED 585264852500                       # Cumulative time (in ticks) in various power states (Tick)
system.realview.generic_timer_mem.frames1.power_state.pwrStateResidencyTicks::UNDEFINED 585264852500                       # Cumulative time (in ticks) in various power states (Tick)
system.realview.generic_timer_mem.power_state.pwrStateResidencyTicks::UNDEFINED 585264852500                       # Cumulative time (in ticks) in various power states (Tick)
system.realview.gic.power_state.pwrStateResidencyTicks::UNDEFINED 585264852500                       # Cumulative time (in ticks) in various power states (Tick)
system.realview.gicv2m.power_state.pwrStateResidencyTicks::UNDEFINED 585264852500                       # Cumulative time (in ticks) in various power states (Tick)
system.realview.io_voltage.voltage           3.300000                       # Voltage in Volts (Volt)
system.realview.kmi0.power_state.pwrStateResidencyTicks::UNDEFINED 585264852500                       # Cumulative time (in ticks) in various power states (Tick)
system.realview.kmi1.power_state.pwrStateResidencyTicks::UNDEFINED 585264852500                       # Cumulative time (in ticks) in various power states (Tick)
system.realview.mcc.osc_clcd.clock              42105                       # Clock period in ticks (Tick)
system.realview.mcc.osc_mcc.clock               20000                       # Clock period in ticks (Tick)
system.realview.mcc.osc_peripheral.clock        41667                       # Clock period in ticks (Tick)
system.realview.mcc.osc_system_bus.clock        41667                       # Clock period in ticks (Tick)
system.realview.non_trusted_sram.power_state.pwrStateResidencyTicks::UNDEFINED 585264852500                       # Cumulative time (in ticks) in various power states (Tick)
system.realview.pci_host.power_state.pwrStateResidencyTicks::UNDEFINED 585264852500                       # Cumulative time (in ticks) in various power states (Tick)
system.realview.pwr_ctrl.power_state.pwrStateResidencyTicks::UNDEFINED 585264852500                       # Cumulative time (in ticks) in various power states (Tick)
system.realview.realview_io.power_state.pwrStateResidencyTicks::UNDEFINED 585264852500                       # Cumulative time (in ticks) in various power states (Tick)
system.realview.rtc.power_state.pwrStateResidencyTicks::UNDEFINED 585264852500                       # Cumulative time (in ticks) in various power states (Tick)
system.realview.system_watchdog.power_state.pwrStateResidencyTicks::UNDEFINED 585264852500                       # Cumulative time (in ticks) in various power states (Tick)
system.realview.trusted_dram.power_state.pwrStateResidencyTicks::UNDEFINED 585264852500                       # Cumulative time (in ticks) in various power states (Tick)
system.realview.trusted_sram.power_state.pwrStateResidencyTicks::UNDEFINED 585264852500                       # Cumulative time (in ticks) in various power states (Tick)
system.realview.trusted_watchdog.power_state.pwrStateResidencyTicks::UNDEFINED 585264852500                       # Cumulative time (in ticks) in various power states (Tick)
system.realview.uart0.power_state.pwrStateResidencyTicks::UNDEFINED 585264852500                       # Cumulative time (in ticks) in various power states (Tick)
system.realview.uart1.power_state.pwrStateResidencyTicks::UNDEFINED 585264852500                       # Cumulative time (in ticks) in various power states (Tick)
system.realview.uart2.power_state.pwrStateResidencyTicks::UNDEFINED 585264852500                       # Cumulative time (in ticks) in various power states (Tick)
system.realview.uart3.power_state.pwrStateResidencyTicks::UNDEFINED 585264852500                       # Cumulative time (in ticks) in various power states (Tick)
system.realview.vgic.power_state.pwrStateResidencyTicks::UNDEFINED 585264852500                       # Cumulative time (in ticks) in various power states (Tick)
system.realview.vio0.power_state.pwrStateResidencyTicks::UNDEFINED 585264852500                       # Cumulative time (in ticks) in various power states (Tick)
system.realview.vio1.power_state.pwrStateResidencyTicks::UNDEFINED 585264852500                       # Cumulative time (in ticks) in various power states (Tick)
system.realview.vram.power_state.pwrStateResidencyTicks::UNDEFINED 585264852500                       # Cumulative time (in ticks) in various power states (Tick)
system.realview.watchdog.power_state.pwrStateResidencyTicks::UNDEFINED 585264852500                       # Cumulative time (in ticks) in various power states (Tick)
system.voltage_domain.voltage                       1                       # Voltage in Volts (Volt)
system.workload.inst.arm                            0                       # number of arm instructions executed (Count)
system.workload.inst.quiesce                      335                       # number of quiesce instructions executed (Count)

---------- End Simulation Statistics   ----------
